ColorMap_Imbalance/ColorMap_Imbalance/Linedata44.dss

!*****Lines

!**************************L5000- Feeder 3 Ph******************************************************************************************************8

New line.L5000_1  Phases=3 Bus1=N1.1.2.3.4 Bus2=N2.1.2.3.4 Length=109.34 units=ft Spacing=3PH_H_3_YYYY wires=[336_ACSR 336_ACSR 336_ACSR 336_ACSR] faultrate=4.8606136e-05 repair=3.7

New line.L5000_2  Phases=3 Bus1=N2.1.2.3.4 Bus2=N3.1.2.3.4 Length=87.97 units=ft Spacing=3PH_H_3_YYYY wires=[336_ACSR 336_ACSR 336_ACSR 336_ACSR] faultrate=4.8606136e-05 repair=3.7
New line.L5000_3  Phases=3 Bus1=N3.1.2.3.4 Bus2=N031.1.2.3.4 Length=72.33 units=ft Spacing=3PH_H_3_YYYY wires=[336_ACSR 336_ACSR 336_ACSR 336_ACSR] faultrate=4.8606136e-05 repair=3.7
New line.L5000_4  Phases=3 Bus1=N3.1.2.3.4 Bus2=N4.1.2.3.4 Length=127.74 units=ft Spacing=3PH_H_3_YYYY wires=[336_ACSR 336_ACSR 336_ACSR 336_ACSR] faultrate=4.8606136e-05 repair=3.7


New line.L5000_4_1  Phases=3 Bus1=N4.1.2.3.4 Bus2=N041.1.2.3.4 Length=162.83 units=ft Spacing=3PH_H_3_YYYY wires=[336_ACSR 336_ACSR 336_ACSR 336_ACSR] faultrate=4.8606136e-05 repair=3.7
New line.L5000_4_2  Phases=3 Bus1=N041.1.2.3.4 Bus2=N042.1.2.3.4 Length=179.35 units=ft Spacing=3PH_H_3_YYYY wires=[4_ALUM 4_ALUM 4_ALUM 4_ALUM] faultrate=4.8606136e-05 repair=3.7

New line.L5000_6  Phases=3 Bus1=N4.1.2.3.4 Bus2=N6.1.2.3.4 Length=141.88 units=ft Spacing=3PH_H_3_YYYY wires=[336_ACSR 336_ACSR 336_ACSR 336_ACSR] faultrate=4.8606136e-05 repair=3.7
New line.L5000_8  Phases=3 Bus1=N6.1.2.3.4 Bus2=N8.1.2.3.4 Length=137.82 units=ft Spacing=3PH_H_3_YYYY wires=[336_ACSR 336_ACSR 336_ACSR 336_ACSR] faultrate=4.8606136e-05 repair=3.7

New line.L5000_9  Phases=3 Bus1=N8.1.2.3.4 Bus2=N9.1.2.3.4 Length=43.00 units=ft Spacing=3PH_H_3_YYYY wires=[336_ACSR 336_ACSR 336_ACSR 336_ACSR] faultrate=4.8606136e-05 repair=3.7

New line.L5000_9_2  Phases=3 Bus1=N9.1.2.3.4 Bus2=N092.1.2.3.4 Length=196.56 units=ft Spacing=3PH_H_3_YYYY wires=[336_ACSR 336_ACSR 336_ACSR 336_ACSR] faultrate=4.8606136e-05 repair=3.7
New line.L5000_9_3  Phases=3 Bus1=N092.1.2.3.4 Bus2=N093.1.2.3.4 Length=182.77 units=ft Spacing=3PH_H_3_YYYY wires=[336_ACSR 336_ACSR 336_ACSR 336_ACSR] faultrate=4.8606136e-05 repair=3.7


New line.L5000_10  Phases=3 Bus1=N9.1.2.3.4 Bus2=N10.1.2.3.4 Length=114.13 units=ft Spacing=3PH_H_3_YYYY wires=[336_ACSR 336_ACSR 336_ACSR 336_ACSR] faultrate=4.8606136e-05 repair=3.7
New line.L5000_11  Phases=3 Bus1=N10.1.2.3.4 Bus2=N11.1.2.3.4 Length=95.11 units=ft Spacing=3PH_H_3_YYYY wires=[336_ACSR 336_ACSR 336_ACSR 336_ACSR] faultrate=4.8606136e-05 repair=3.7
New line.L5000_12  Phases=3 Bus1=N11.1.2.3.4 Bus2=N12.1.2.3.4 Length=116.05 units=ft Spacing=3PH_H_3_YYYY wires=[336_ACSR 336_ACSR 336_ACSR 336_ACSR] faultrate=4.8606136e-05 repair=3.7
New line.L5000_13  Phases=3 Bus1=N12.1.2.3.4 Bus2=N13.1.2.3.4 Length=85.02 units=ft Spacing=3PH_H_3_YYYY wires=[336_ACSR 336_ACSR 336_ACSR 336_ACSR] faultrate=4.8606136e-05 repair=3.7
New line.L5000_14  Phases=3 Bus1=N13.1.2.3.4 Bus2=N14.1.2.3.4 Length=93.56 units=ft Spacing=3PH_H_3_YYYY wires=[336_ACSR 336_ACSR 336_ACSR 336_ACSR] faultrate=4.8606136e-05 repair=3.7
New line.L5000_15  Phases=3 Bus1=N14.1.2.3.4 Bus2=N15.1.2.3.4 Length=138.42 units=ft Spacing=3PH_H_3_YYYY wires=[336_ACSR 336_ACSR 336_ACSR 336_ACSR] faultrate=4.8606136e-05 repair=3.7
New line.L5000_16  Phases=3 Bus1=N15.1.2.3.4 Bus2=N16.1.2.3.4 Length=94.80 units=ft Spacing=3PH_H_3_YYYY wires=[336_ACSR 336_ACSR 336_ACSR 336_ACSR] faultrate=4.8606136e-05 repair=3.7
New line.L5000_17  Phases=3 Bus1=N16.1.2.3.4 Bus2=N17.1.2.3.4 Length=95.55 units=ft Spacing=3PH_H_3_YYYY wires=[336_ACSR 336_ACSR 336_ACSR 336_ACSR] faultrate=4.8606136e-05 repair=3.7
New line.L5000_18  Phases=3 Bus1=N17.1.2.3.4 Bus2=N18.1.2.3.4 Length=117.69 units=ft Spacing=3PH_H_3_YYYY wires=[336_ACSR 336_ACSR 336_ACSR 336_ACSR] faultrate=4.8606136e-05 repair=3.7
New line.L5000_19  Phases=3 Bus1=N18.1.2.3.4 Bus2=N19.1.2.3.4 Length=94.88 units=ft Spacing=3PH_H_3_YYYY wires=[336_ACSR 336_ACSR 336_ACSR 336_ACSR] faultrate=4.8606136e-05 repair=3.7
New line.L5000_20  Phases=3 Bus1=N19.1.2.3.4 Bus2=N20.1.2.3.4 Length=100.59 units=ft Spacing=3PH_H_3_YYYY wires=[336_ACSR 336_ACSR 336_ACSR 336_ACSR] faultrate=4.8606136e-05 repair=3.7
New line.L5000_21  Phases=3 Bus1=N20.1.2.3.4 Bus2=N21.1.2.3.4 Length=105.79 units=ft Spacing=3PH_H_3_YYYY wires=[336_ACSR 336_ACSR 336_ACSR 336_ACSR] faultrate=4.8606136e-05 repair=3.7


New line.L5000_21_1  Phases=3 Bus1=N21.1.2.3.4 Bus2=N0211.1.2.3.4 Length=86.11 units=ft Spacing=3PH_H_3_YYYY wires=[336_ACSR 336_ACSR 336_ACSR 336_ACSR] faultrate=4.8606136e-05 repair=3.7
New line.L5000_21_1_5  Phases=3 Bus1=N0211.1.2.3.4 Bus2=N02115.1.2.3.4 Length=79.60 units=ft Spacing=3PH_H_3_YYYY wires=[336_ACSR 336_ACSR 336_ACSR 336_ACSR] faultrate=4.8606136e-05 repair=3.7
New line.L5000_21_2  Phases=3 Bus1=N02115.1.2.3.4 Bus2=N0212.1.2.3.4 Length=55.96 units=ft Spacing=3PH_H_3_YYYY wires=[336_ACSR 336_ACSR 336_ACSR 336_ACSR] faultrate=4.8606136e-05 repair=3.7

New line.L5000_22  Phases=3 Bus1=N21.1.2.3.4 Bus2=N22.1.2.3.4 Length=91.32 units=ft Spacing=3PH_H_3_YYYY wires=[336_ACSR 336_ACSR 336_ACSR 336_ACSR] faultrate=4.8606136e-05 repair=3.7
New line.L5000_23  Phases=3 Bus1=N22.1.2.3.4 Bus2=N23.1.2.3.4 Length=116.65 units=ft Spacing=3PH_H_3_YYYY wires=[336_ACSR 336_ACSR 336_ACSR 336_ACSR] faultrate=4.8606136e-05 repair=3.7
New line.L5000_24  Phases=3 Bus1=N23.1.2.3.4 Bus2=N24.1.2.3.4 Length=48.90 units=ft Spacing=3PH_H_3_YYYY wires=[336_ACSR 336_ACSR 336_ACSR 336_ACSR] faultrate=4.8606136e-05 repair=3.7
New line.L5000_25  Phases=3 Bus1=N24.1.2.3.4 Bus2=N25.1.2.3.4 Length=57.54 units=ft Spacing=3PH_H_3_YYYY wires=[336_ACSR 336_ACSR 336_ACSR 336_ACSR] faultrate=4.8606136e-05 repair=3.7
New line.L5000_26  Phases=3 Bus1=N25.1.2.3.4 Bus2=N26.1.2.3.4 Length=101.88 units=ft Spacing=3PH_H_3_YYYY wires=[336_ACSR 336_ACSR 336_ACSR 336_ACSR] faultrate=4.8606136e-05 repair=3.7
New line.L5000_27  Phases=3 Bus1=N26.1.2.3.4 Bus2=N27.1.2.3.4 Length=115.10 units=ft Spacing=3PH_H_3_YYYY wires=[336_ACSR 336_ACSR 336_ACSR 336_ACSR] faultrate=4.8606136e-05 repair=3.7
New line.L5000_28  Phases=3 Bus1=N27.1.2.3.4 Bus2=N28.1.2.3.4 Length=98.50 units=ft Spacing=3PH_H_3_YYYY wires=[336_ACSR 336_ACSR 336_ACSR 336_ACSR] faultrate=4.8606136e-05 repair=3.7
New line.L5000_29  Phases=3 Bus1=N28.1.2.3.4 Bus2=N29.1.2.3.4 Length=111.67 units=ft Spacing=3PH_H_3_YYYY wires=[336_ACSR 336_ACSR 336_ACSR 336_ACSR] faultrate=4.8606136e-05 repair=3.7
New line.L5000_30  Phases=3 Bus1=N29.1.2.3.4 Bus2=N30.1.2.3.4 Length=67.02 units=ft Spacing=3PH_H_3_YYYY wires=[336_ACSR 336_ACSR 336_ACSR 336_ACSR] faultrate=4.8606136e-05 repair=3.7


New line.L5000_30_1  Phases=3 Bus1=N30.1.2.3.4 Bus2=N0301.1.2.3.4 Length=19.06 units=ft Spacing=3PH_H_3_YYYY wires=[336_ACSR 336_ACSR 336_ACSR 336_ACSR] faultrate=4.8606136e-05 repair=3.7
New line.L5000_30_2  Phases=3 Bus1=N0301.1.2.3.4 Bus2=N0302.1.2.3.4 Length=150.24 units=ft Spacing=3PH_H_3_YYYY wires=[336_ACSR 336_ACSR 336_ACSR 336_ACSR] faultrate=4.8606136e-05 repair=3.7
New line.L5000_31  Phases=3 Bus1=N30.1.2.3.4 Bus2=N31.1.2.3.4 Length=19.13 units=ft Spacing=3PH_H_3_YYYY wires=[336_ACSR 336_ACSR 336_ACSR 336_ACSR] faultrate=4.8606136e-05 repair=3.7
New line.L5000_32  Phases=3 Bus1=N31.1.2.3.4 Bus2=N32.1.2.3.4 Length=159.66 units=ft Spacing=3PH_H_3_YYYY wires=[336_ACSR 336_ACSR 336_ACSR 336_ACSR] faultrate=4.8606136e-05 repair=3.7
New line.L5000_33  Phases=3 Bus1=N32.1.2.3.4 Bus2=N33.1.2.3.4 Length=166.14 units=ft Spacing=3PH_H_3_YYYY wires=[336_ACSR 336_ACSR 336_ACSR 336_ACSR] faultrate=4.8606136e-05 repair=3.7
New line.L5000_34  Phases=3 Bus1=N33.1.2.3.4 Bus2=N34.1.2.3.4 Length=149.87 units=ft Spacing=3PH_H_3_YYYY wires=[336_ACSR 336_ACSR 336_ACSR 336_ACSR] faultrate=4.8606136e-05 repair=3.7
New line.L5000_35  Phases=3 Bus1=N34.1.2.3.4 Bus2=N35.1.2.3.4 Length=115.41 units=ft Spacing=3PH_H_3_YYYY wires=[336_ACSR 336_ACSR 336_ACSR 336_ACSR] faultrate=4.8606136e-05 repair=3.7
New line.L5000_37  Phases=3 Bus1=N35.1.2.3.4 Bus2=N37.1.2.3.4 Length= 88.97 units=ft Spacing=3PH_H_3_YYYY wires=[336_ACSR 336_ACSR 336_ACSR 336_ACSR] faultrate=4.8606136e-05 repair=3.7
New line.L5000_38  Phases=3 Bus1=N37.1.2.3.4 Bus2=N38.1.2.3.4 Length=64.33 units=ft Spacing=3PH_H_3_YYYY wires=[336_ACSR 336_ACSR 336_ACSR 336_ACSR] faultrate=4.8606136e-05 repair=3.7
New line.L5000_39  Phases=3 Bus1=N38.1.2.3.4 Bus2=N39.1.2.3.4 Length=85.37 units=ft Spacing=3PH_H_3_YYYY wires=[336_ACSR 336_ACSR 336_ACSR 336_ACSR] faultrate=4.8606136e-05 repair=3.7
New line.L5000_40  Phases=3 Bus1=N39.1.2.3.4 Bus2=N40.1.2.3.4 Length=93.54 units=ft Spacing=3PH_H_3_YYYY wires=[336_ACSR 336_ACSR 336_ACSR 336_ACSR] faultrate=4.8606136e-05 repair=3.7



New line.L5000_41  Phases=3 Bus1=N40.1.2.3.4 Bus2=N41.1.2.3.4 Length=102.07 units=ft Spacing=3PH_H_3_YYYY wires=[336_ACSR 336_ACSR 336_ACSR 336_ACSR] faultrate=4.8606136e-05 repair=3.7
New line.L5000_42  Phases=3 Bus1=N41.1.2.3.4 Bus2=N42.1.2.3.4 Length=96.30 units=ft Spacing=3PH_H_3_YYYY wires=[336_ACSR 336_ACSR 336_ACSR 336_ACSR] faultrate=4.8606136e-05 repair=3.7
New line.L5000_43  Phases=3 Bus1=N42.1.2.3.4 Bus2=N43.1.2.3.4 Length=112.30 units=ft Spacing=3PH_H_3_YYYY wires=[336_ACSR 336_ACSR 336_ACSR 336_ACSR] faultrate=4.8606136e-05 repair=3.7
New line.L5000_44  Phases=3 Bus1=N43.1.2.3.4 Bus2=N44.1.2.3.4 Length=65.55 units=ft Spacing=3PH_H_3_YYYY wires=[336_ACSR 336_ACSR 336_ACSR 336_ACSR] faultrate=4.8606136e-05 repair=3.7
New line.L5000_45  Phases=3 Bus1=N44.1.2.3.4 Bus2=N45.1.2.3.4 Length=74.37 units=ft Spacing=3PH_H_3_YYYY wires=[336_ACSR 336_ACSR 336_ACSR 336_ACSR] faultrate=4.8606136e-05 repair=3.7
New line.L5000_46  Phases=3 Bus1=N45.1.2.3.4 Bus2=N46.1.2.3.4 Length=73.63 units=ft Spacing=3PH_H_3_YYYY wires=[336_ACSR 336_ACSR 336_ACSR 336_ACSR] faultrate=4.8606136e-05 repair=3.7
New line.L5000_48  Phases=3 Bus1=N46.1.2.3.4 Bus2=N48.1.2.3.4 Length=176.49 units=ft Spacing=3PH_H_3_YYYY wires=[336_ACSR 336_ACSR 336_ACSR 336_ACSR] faultrate=4.8606136e-05 repair=3.7
New line.L5000_48_5  Phases=3 Bus1=N48.1.2.3.4 Bus2=N0485.1.2.3.4 Length=74.36 units=ft Spacing=3PH_H_3_YYYY wires=[336_ACSR 336_ACSR 336_ACSR 336_ACSR] faultrate=4.8606136e-05 repair=3.7
New line.L5000_49  Phases=3 Bus1=N0485.1.2.3.4 Bus2=N49.1.2.3.4 Length=34.99 units=ft Spacing=3PH_H_3_YYYY wires=[336_ACSR 336_ACSR 336_ACSR 336_ACSR] faultrate=4.8606136e-05 repair=3.7
New line.L5000_50  Phases=3 Bus1=N49.1.2.3.4 Bus2=N50.1.2.3.4 Length=98.08 units=ft Spacing=3PH_H_3_YYYY wires=[336_ACSR 336_ACSR 336_ACSR 336_ACSR] faultrate=4.8606136e-05 repair=3.7
New line.L5000_51  Phases=3 Bus1=N50.1.2.3.4 Bus2=N51.1.2.3.4 Length=128.55 units=ft Spacing=3PH_H_3_YYYY wires=[336_ACSR 336_ACSR 336_ACSR 336_ACSR] faultrate=4.8606136e-05 repair=3.7
New line.L5000_51_1  Phases=3 Bus1=N51.1.2.3.4 Bus2=N0511.1.2.3.4 Length=63.11 units=ft Spacing=3PH_H_3_YYYY wires=[336_ACSR 336_ACSR 336_ACSR 336_ACSR] faultrate=4.8606136e-05 repair=3.7
New line.L5000_52  Phases=3 Bus1=N51.1.2.3.4 Bus2=N52.1.2.3.4 Length=80.45 units=ft Spacing=3PH_H_3_YYYY wires=[336_ACSR 336_ACSR 336_ACSR 336_ACSR] faultrate=4.8606136e-05 repair=3.7
New line.L5000_53  Phases=3 Bus1=N52.1.2.3.4 Bus2=N53.1.2.3.4 Length=118.86 units=ft Spacing=3PH_H_3_YYYY wires=[336_ACSR 336_ACSR 336_ACSR 336_ACSR] faultrate=4.8606136e-05 repair=3.7
New line.L5000_54  Phases=3 Bus1=N53.1.2.3.4 Bus2=N54.1.2.3.4 Length=74.73 units=ft Spacing=3PH_H_3_YYYY wires=[336_ACSR 336_ACSR 336_ACSR 336_ACSR] faultrate=4.8606136e-05 repair=3.7

New line.L5000_55  Phases=3 Bus1=N54.1.2.3.4 Bus2=N55.1.2.3.4 Length=80.07 units=ft Spacing=3PH_H_3_YYYY wires=[336_ACSR 336_ACSR 336_ACSR 336_ACSR] faultrate=4.8606136e-05 repair=3.7
New line.L5000_56  Phases=3 Bus1=N55.1.2.3.4 Bus2=N56.1.2.3.4 Length=101.30 units=ft Spacing=3PH_H_3_YYYY wires=[336_ACSR 336_ACSR 336_ACSR 336_ACSR] faultrate=4.8606136e-05 repair=3.7


New line.L5000_57  Phases=3 Bus1=N56.1.2.3.4 Bus2=N57.1.2.3.4 Length=114.68 units=ft Spacing=3PH_H_3_YYYY wires=[336_ACSR 336_ACSR 336_ACSR 336_ACSR] faultrate=4.8606136e-05 repair=3.7

New line.L5000_58  Phases=3 Bus1=N57.1.2.3.4 Bus2=N58.1.2.3.4 Length= 85.23 units=ft Spacing=3PH_H_3_YYYY wires=[336_ACSR 336_ACSR 336_ACSR 336_ACSR] faultrate=4.8606136e-05 repair=3.7
New line.L5000_59  Phases=3 Bus1=N58.1.2.3.4 Bus2=N59.1.2.3.4 Length=103.15 units=ft Spacing=3PH_H_3_YYYY wires=[336_ACSR 336_ACSR 336_ACSR 336_ACSR] faultrate=4.8606136e-05 repair=3.7
New line.L5000_60  Phases=3 Bus1=N59.1.2.3.4 Bus2=N60.1.2.3.4 Length=124.39 units=ft Spacing=3PH_H_3_YYYY wires=[336_ACSR 336_ACSR 336_ACSR 336_ACSR] faultrate=4.8606136e-05 repair=3.7
New line.L5000_61  Phases=3 Bus1=N60.1.2.3.4 Bus2=N61.1.2.3.4 Length=119.00 units=ft Spacing=3PH_H_3_YYYY wires=[336_ACSR 336_ACSR 336_ACSR 336_ACSR] faultrate=4.8606136e-05 repair=3.7
New line.L5000_62  Phases=3 Bus1=N61.1.2.3.4 Bus2=N62.1.2.3.4 Length=131.52 units=ft Spacing=3PH_H_3_YYYY wires=[336_ACSR 336_ACSR 336_ACSR 336_ACSR] faultrate=4.8606136e-05 repair=3.7
New line.L5000_64  Phases=3 Bus1=N62.1.2.3.4 Bus2=N64.1.2.3.4 Length=170.74 units=ft Spacing=3PH_H_3_YYYY wires=[336_ACSR 336_ACSR 336_ACSR 336_ACSR] faultrate=4.8606136e-05 repair=3.7
New line.L5000_65  Phases=3 Bus1=N64.1.2.3.4 Bus2=N65.1.2.3.4 Length=115.83 units=ft Spacing=3PH_H_3_YYYY wires=[336_ACSR 336_ACSR 336_ACSR 336_ACSR] faultrate=4.8606136e-05 repair=3.7
New line.L5000_66  Phases=3 Bus1=N65.1.2.3.4 Bus2=N66.1.2.3.4 Length= 46.49 units=ft Spacing=3PH_H_3_YYYY wires=[336_ACSR 336_ACSR 336_ACSR 336_ACSR] faultrate=4.8606136e-05 repair=3.7
New line.L5000_67  Phases=3 Bus1=N66.1.2.3.4 Bus2=N67.1.2.3.4 Length=210.95 units=ft Spacing=3PH_H_3_YYYY wires=[336_ACSR 336_ACSR 336_ACSR 336_ACSR] faultrate=4.8606136e-05 repair=3.7

New line.L5000_67_5  Phases=3 Bus1=N67.1.2.3.4 Bus2=N0675.1.2.3.4 Length=61.87 units=ft Spacing=3PH_H_3_YYYY wires=[336_ACSR 336_ACSR 336_ACSR 336_ACSR] faultrate=4.8606136e-05 repair=3.7
New line.L5000_67_5_1  Phases=3 Bus1=N67.1.2.3.4 Bus2=N06751.1.2.3.4 Length=91.72 units=ft Spacing=3PH_H_3_YYYY wires=[336_ACSR 336_ACSR 336_ACSR 336_ACSR] faultrate=4.8606136e-05 repair=3.7

New line.L5000_68  Phases=3 Bus1=N0675.1.2.3.4 Bus2=N68.1.2.3.4 Length=54.46 units=ft Spacing=3PH_H_3_YYYY wires=[336_ACSR 336_ACSR 336_ACSR 336_ACSR] faultrate=4.8606136e-05 repair=3.7

New line.L5000_68_1 Phases=3 Bus1=N68.1.2.3.4 Bus2=N0681.1.2.3.4 Length=86.70 units=ft Spacing=3PH_H_3_YYYY wires=[1/0_ACSR 1/0_ACSR 1/0_ACSR 1/0_ACSR] faultrate=4.8606136e-05 repair=3.7
New line.L5000_68_1_1  Phases=3 Bus1=N0681.1.2.3.4 Bus2=N06811.1.2.3.4 Length=144.04 units=ft Spacing=3PH_H_3_YYYY wires=[336_ACSR 336_ACSR 336_ACSR 336_ACSR] faultrate=4.8606136e-05 repair=3.7
New line.L5000_68_2  Phases=3 Bus1=N68.1.2.3.4 Bus2=N0682.1.2.3.4 Length=162.58 units=ft Spacing=3PH_H_3_YYYY wires=[336_ACSR 336_ACSR 336_ACSR 336_ACSR] faultrate=4.8606136e-05 repair=3.7
New line.L5000_68_3  Phases=3 Bus1=N68.1.2.3.4 Bus2=N0683.1.2.3.4 Length=168.68 units=ft Spacing=3PH_H_3_YYYY wires=[336_ACSR 336_ACSR 336_ACSR 336_ACSR] faultrate=4.8606136e-05 repair=3.7

New line.L5000_68_3_1  Phases=3 Bus1=N0683.1.2.3.4 Bus2=N06831.1.2.3.4 Length=162.82 units=ft Spacing=3PH_H_3_YYYY wires=[336_ACSR 336_ACSR 336_ACSR 336_ACSR] faultrate=4.8606136e-05 repair=3.7
New line.L5000_68_3_2 Phases=3 Bus1=N06831.1.2.3.4 Bus2=N06832.1.2.3.4 Length=82.77 units=ft Spacing=3PH_H_3_YYYY wires=[336_ACSR 336_ACSR 336_ACSR 336_ACSR] faultrate=4.8606136e-05 repair=3.7
New line.L5000_68_3_3  Phases=3 Bus1=N06832.1.2.3.4 Bus2=N06833.1.2.3.4 Length=235.82 units=ft Spacing=3PH_H_3_YYYY wires=[336_ACSR 336_ACSR 336_ACSR 336_ACSR] faultrate=4.8606136e-05 repair=3.7
New line.L5000_69 Phases=3 Bus1=N68.1.2.3.4 Bus2=N69.1.2.3.4 Length=189.14 units=ft Spacing=3PH_H_3_YYYY wires=[336_ACSR 336_ACSR 336_ACSR 336_ACSR] faultrate=4.8606136e-05 repair=3.7
New line.L5000_69_1 Phases=3 Bus1=N69.1.2.3.4 Bus2=N0691.1.2.3.4 Length=85.92 units=ft Spacing=3PH_H_3_YYYY wires=[336_ACSR 336_ACSR 336_ACSR 336_ACSR] faultrate=4.8606136e-05 repair=3.7


New line.L5000_70 Phases=3 Bus1=N69.1.2.3.4 Bus2=N70.1.2.3.4 Length=101.72 units=ft Spacing=3PH_H_3_YYYY wires=[336_ACSR 336_ACSR 336_ACSR 336_ACSR] faultrate=4.8606136e-05 repair=3.7
New line.L5000_71 Phases=3 Bus1=N70.1.2.3.4 Bus2=N71.1.2.3.4 Length=138.52 units=ft Spacing=3PH_H_3_YYYY wires=[336_ACSR 336_ACSR 336_ACSR 336_ACSR] faultrate=4.8606136e-05 repair=3.7
New line.L5000_72 Phases=3 Bus1=N71.1.2.3.4 Bus2=N72.1.2.3.4 Length=125.86 units=ft Spacing=3PH_H_3_YYYY wires=[336_ACSR 336_ACSR 336_ACSR 336_ACSR] faultrate=4.8606136e-05 repair=3.7
New line.L5000_73 Phases=3 Bus1=N72.1.2.3.4 Bus2=N73.1.2.3.4 Length=1113.05 units=ft Spacing=3PH_H_3_YYYY wires=[336_ACSR 336_ACSR 336_ACSR 336_ACSR] faultrate=4.8606136e-05 repair=3.7
New line.L5000_74 Phases=3 Bus1=N73.1.2.3.4 Bus2=N74.1.2.3.4 Length=91.91 units=ft Spacing=3PH_H_3_YYYY wires=[336_ACSR 336_ACSR 336_ACSR 336_ACSR] faultrate=4.8606136e-05 repair=3.7

New line.L5000_74_1 Phases=3 Bus1=N74.1.2.3.4 Bus2=N0741.1.2.3.4 Length=150.53 units=ft Spacing=3PH_H_3_YYYY wires=[336_ACSR 336_ACSR 336_ACSR 336_ACSR] faultrate=4.8606136e-05 repair=3.7

New line.L5000_75 Phases=3 Bus1=N74.1.2.3.4 Bus2=N75.1.2.3.4 Length=216.71 units=ft Spacing=3PH_H_3_YYYY wires=[336_ACSR 336_ACSR 336_ACSR 336_ACSR] faultrate=4.8606136e-05 repair=3.7
New line.L5000_76 Phases=3 Bus1=N75.1.2.3.4 Bus2=N76.1.2.3.4 Length=106.04 units=ft Spacing=3PH_H_3_YYYY wires=[336_ACSR 336_ACSR 336_ACSR 336_ACSR] faultrate=4.8606136e-05 repair=3.7

New line.L5000_76_1 Phases=3 Bus1=N76.1.2.3.4 Bus2=N0761.1.2.3.4 Length=181.14 units=ft Spacing=3PH_H_3_YYYY wires=[336_ACSR 336_ACSR 336_ACSR 336_ACSR] faultrate=4.8606136e-05 repair=3.7

New line.L5000_77 Phases=3 Bus1=N76.1.2.3.4 Bus2=N77.1.2.3.4 Length=133.27 units=ft Spacing=3PH_H_3_YYYY wires=[336_ACSR 336_ACSR 336_ACSR 336_ACSR] faultrate=4.8606136e-05 repair=3.7
New line.L5000_78 Phases=3 Bus1=N77.1.2.3.4 Bus2=N78.1.2.3.4 Length=118.82 units=ft Spacing=3PH_H_3_YYYY wires=[336_ACSR 336_ACSR 336_ACSR 336_ACSR] faultrate=4.8606136e-05 repair=3.7
New line.L5000_79 Phases=3 Bus1=N78.1.2.3.4 Bus2=N79.1.2.3.4 Length=135.78 units=ft Spacing=3PH_H_3_YYYY wires=[336_ACSR 336_ACSR 336_ACSR 336_ACSR] faultrate=4.8606136e-05 repair=3.7

New line.L5000_79_1 Phases=3 Bus1=N79.1.2.3.4 Bus2=N0791.1.2.3.4 Length=135.07 units=ft Spacing=3PH_H_3_YYYY wires=[336_ACSR 336_ACSR 336_ACSR 336_ACSR] faultrate=4.8606136e-05 repair=3.7
New line.L5000_79_2 Phases=3 Bus1=N0791.1.2.3.4 Bus2=N0792.1.2.3.4 Length=50.39 units=ft Spacing=3PH_H_3_YYYY wires=[336_ACSR 336_ACSR 336_ACSR 336_ACSR] faultrate=4.8606136e-05 repair=3.7

New line.L5000_80 Phases=3 Bus1=N79.1.2.3.4 Bus2=N80.1.2.3.4 Length=155.56 units=ft Spacing=3PH_H_3_YYYY wires=[336_ACSR 336_ACSR 336_ACSR 336_ACSR] faultrate=4.8606136e-05 repair=3.7
New line.L5000_81 Phases=3 Bus1=N80.1.2.3.4 Bus2=N81.1.2.3.4 Length=187.16 units=ft Spacing=3PH_H_3_YYYY wires=[336_ACSR 336_ACSR 336_ACSR 336_ACSR] faultrate=4.8606136e-05 repair=3.7
New line.L5000_83 Phases=3 Bus1=N81.1.2.3.4 Bus2=N83.1.2.3.4 Length=140.22 units=ft Spacing=3PH_H_3_YYYY wires=[336_ACSR 336_ACSR 336_ACSR 336_ACSR] faultrate=4.8606136e-05 repair=3.7
New line.L5000_84 Phases=3 Bus1=N83.1.2.3.4 Bus2=N84.1.2.3.4 Length=150.74 units=ft Spacing=3PH_H_3_YYYY wires=[336_ACSR 336_ACSR 336_ACSR 336_ACSR] faultrate=4.8606136e-05 repair=3.7
New line.L5000_85 Phases=3 Bus1=N84.1.2.3.4 Bus2=N85.1.2.3.4 Length=202.39 units=ft Spacing=3PH_H_3_YYYY wires=[336_ACSR 336_ACSR 336_ACSR 336_ACSR] faultrate=4.8606136e-05 repair=3.7


New line.L5000_86 Phases=3 Bus1=N85.1.2.3.4 Bus2=N86.1.2.3.4 Length=229.06 units=ft Spacing=3PH_H_3_YYYY wires=[336_ACSR 336_ACSR 336_ACSR 336_ACSR] faultrate=4.8606136e-05 repair=3.7
New line.L5000_88 Phases=3 Bus1=N86.1.2.3.4 Bus2=N88.1.2.3.4 Length=202.32 units=ft Spacing=3PH_H_3_YYYY wires=[336_ACSR 336_ACSR 336_ACSR 336_ACSR] faultrate=4.8606136e-05 repair=3.7
New line.L5000_89 Phases=3 Bus1=N88.1.2.3.4 Bus2=N89.1.2.3.4 Length=223.44 units=ft Spacing=3PH_H_3_YYYY wires=[336_ACSR 336_ACSR 336_ACSR 336_ACSR] faultrate=4.8606136e-05 repair=3.7
New line.L5000_90 Phases=3 Bus1=N89.1.2.3.4 Bus2=N90.1.2.3.4 Length=182.68 units=ft Spacing=3PH_H_3_YYYY wires=[336_ACSR 336_ACSR 336_ACSR 336_ACSR] faultrate=4.8606136e-05 repair=3.7
New line.L5000_91 Phases=3 Bus1=N90.1.2.3.4 Bus2=N91.1.2.3.4 Length=194.74 units=ft Spacing=3PH_H_3_YYYY wires=[336_ACSR 336_ACSR 336_ACSR 336_ACSR] faultrate=4.8606136e-05 repair=3.7
New line.L5000_91_1 Phases=3 Bus1=N91.1.2.3.4 Bus2=N0911.1.2.3.4 Length=275.76 units=ft Spacing=3PH_H_3_YYYY wires=[6A_CW 6A_CW 6A_CW 336_ACSR] faultrate=4.8606136e-05 repair=3.7
New line.L5000_91_3 Phases=3 Bus1=N91.1.2.3.4 Bus2=N0913.1.2.3.4 Length=104.56 units=ft Spacing=3PH_H_3_YYYY wires=[336_ACSR 336_ACSR 336_ACSR 336_ACSR] faultrate=4.8606136e-05 repair=3.7
New line.L5000_91_4 Phases=3 Bus1=N0913.1.2.3.4 Bus2=N0914.1.2.3.4 Length=218.67 units=ft Spacing=3PH_H_3_YYYY wires=[336_ACSR 336_ACSR 336_ACSR 336_ACSR] faultrate=4.8606136e-05 repair=3.7

New line.L5000_92 Phases=3 Bus1=N91.1.2.3.4 Bus2=N92.1.2.3.4 Length=335.44 units=ft Spacing=3PH_H_3_YYYY wires=[336_ACSR 336_ACSR 336_ACSR 336_ACSR] faultrate=4.8606136e-05 repair=3.7
New line.L5000_92_1 Phases=3 Bus1=N92.1.2.3.4 Bus2=N0921.1.2.3.4 Length=117.51 units=ft Spacing=3PH_H_3_YYYY wires=[336_ACSR 336_ACSR 336_ACSR 336_ACSR] faultrate=4.8606136e-05 repair=3.7

New line.L5000_93 Phases=3 Bus1=N92.1.2.3.4 Bus2=N93.1.2.3.4 Length=268.24 units=ft Spacing=3PH_H_3_YYYY wires=[336_ACSR 336_ACSR 336_ACSR 336_ACSR] faultrate=4.8606136e-05 repair=3.7
New line.L5000_94 Phases=3 Bus1=N93.1.2.3.4 Bus2=N94.1.2.3.4 Length=260.55 units=ft Spacing=3PH_H_3_YYYY wires=[336_ACSR 336_ACSR 336_ACSR 336_ACSR] faultrate=4.8606136e-05 repair=3.7
New line.L5000_94_1 Phases=3 Bus1=N94.1.2.3.4 Bus2=N0941.1.2.3.4 Length=258.63 units=ft Spacing=3PH_H_3_YYYY wires=[6A_CW 6A_CW 6A_CW 336_ACSR] faultrate=4.8606136e-05 repair=3.7

New line.L5000_95 Phases=3 Bus1=N94.1.2.3.4 Bus2=N95.1.2.3.4 Length=294.22 units=ft Spacing=3PH_H_3_YYYY wires=[336_ACSR 336_ACSR 336_ACSR 336_ACSR] faultrate=4.8606136e-05 repair=3.7
New line.L5000_96 Phases=3 Bus1=N95.1.2.3.4 Bus2=N96.1.2.3.4 Length=247.52 units=ft Spacing=3PH_H_3_YYYY wires=[336_ACSR 336_ACSR 336_ACSR 336_ACSR] faultrate=4.8606136e-05 repair=3.7
New line.L5000_97 Phases=3 Bus1=N96.1.2.3.4 Bus2=N97.1.2.3.4 Length=266.24 units=ft Spacing=3PH_H_3_YYYY wires=[336_ACSR 336_ACSR 336_ACSR 336_ACSR] faultrate=4.8606136e-05 repair=3.7
New line.L5000_98 Phases=3 Bus1=N97.1.2.3.4 Bus2=N98.1.2.3.4 Length=296.87 units=ft Spacing=3PH_H_3_YYYY wires=[336_ACSR 336_ACSR 336_ACSR 336_ACSR] faultrate=4.8606136e-05 repair=3.7
New line.L5000_99 Phases=3 Bus1=N98.1.2.3.4 Bus2=N99.1.2.3.4 Length=241.11 units=ft Spacing=3PH_H_3_YYYY wires=[336_ACSR 336_ACSR 336_ACSR 336_ACSR] faultrate=4.8606136e-05 repair=3.7
New line.L5000_99_5 Phases=3 Bus1=N99.1.2.3.4 Bus2=N0995.1.2.3.4 Length=196.55 units=ft Spacing=3PH_H_3_YYYY wires=[336_ACSR 336_ACSR 336_ACSR 336_ACSR] faultrate=4.8606136e-05 repair=3.7
New line.L5000_100 Phases=3 Bus1=N0995.1.2.3.4 Bus2=N100.1.2.3.4 Length=108.29 units=ft Spacing=3PH_H_3_YYYY wires=[336_ACSR 336_ACSR 336_ACSR 336_ACSR] faultrate=4.8606136e-05 repair=3.7
New line.L5000_100_1 Phases=3 Bus1=N100.1.2.3.4 Bus2=N01001.1.2.3.4 Length=253.77 units=ft Spacing=3PH_H_3_YYYY wires=[336_ACSR 336_ACSR 336_ACSR 336_ACSR] faultrate=4.8606136e-05 repair=3.7
New line.L5000_101 Phases=3 Bus1=N01001.1.2.3.4 Bus2=N101.1.2.3.4 Length= 109.01 units=ft Spacing=3PH_H_3_YYYY wires=[336_ACSR 336_ACSR 336_ACSR 336_ACSR] faultrate=4.8606136e-05 repair=3.7
New line.L5000_101_1 Phases=3 Bus1=N101.1.2.3.4 Bus2=N01011.1.2.3.4 Length=109.01 units=ft Spacing=3PH_H_3_YYYY wires=[4/0_ACSR 4/0_ACSR 4/0_ACSR 336_ACSR] faultrate=4.8606136e-05 repair=3.7
New line.L5000_101_2 Phases=3 Bus1=N01011.1.2.3.4 Bus2=N01012.1.2.3.4 Length=186.62 units=ft Spacing=3PH_H_3_YYYY wires=[4/0_ACSR 4/0_ACSR 4/0_ACSR 336_ACSR] faultrate=4.8606136e-05 repair=3.7

New line.L5000_102 Phases=3 Bus1=N101.1.2.3.4 Bus2=N102.1.2.3.4 Length= 202.72 units=ft Spacing=3PH_H_3_YYYY wires=[336_ACSR 336_ACSR 336_ACSR 336_ACSR] faultrate=4.8606136e-05 repair=3.7
New line.L5000_103 Phases=3 Bus1=N102.1.2.3.4 Bus2=N103.1.2.3.4 Length= 204.72 units=ft Spacing=3PH_H_3_YYYY wires=[336_ACSR 336_ACSR 336_ACSR 336_ACSR] faultrate=4.8606136e-05 repair=3.7
New line.L5000_104 Phases=3 Bus1=N103.1.2.3.4 Bus2=N104.1.2.3.4 Length= 200.21 units=ft Spacing=3PH_H_3_YYYY wires=[336_ACSR 336_ACSR 336_ACSR 336_ACSR] faultrate=4.8606136e-05 repair=3.7
New line.L5000_105 Phases=3 Bus1=N104.1.2.3.4 Bus2=N105.1.2.3.4 Length= 150.91 units=ft Spacing=3PH_H_3_YYYY wires=[336_ACSR 336_ACSR 336_ACSR 336_ACSR] faultrate=4.8606136e-05 repair=3.7
New line.L5000_106 Phases=3 Bus1=N105.1.2.3.4 Bus2=N106.1.2.3.4 Length= 199.50 units=ft Spacing=3PH_H_3_YYYY wires=[336_ACSR 336_ACSR 336_ACSR 336_ACSR] faultrate=4.8606136e-05 repair=3.7
New line.L5000_107 Phases=3 Bus1=N106.1.2.3.4 Bus2=N107.1.2.3.4 Length= 187.19 units=ft Spacing=3PH_H_3_YYYY wires=[336_ACSR 336_ACSR 336_ACSR 336_ACSR] faultrate=4.8606136e-05 repair=3.7

New line.L5000_108 Phases=3 Bus1=N107.1.2.3.4 Bus2=N108.1.2.3.4 Length= 239.32 units=ft Spacing=3PH_H_3_YYYY wires=[336_ACSR 336_ACSR 336_ACSR 336_ACSR] faultrate=4.8606136e-05 repair=3.7
New line.L5000_109 Phases=3 Bus1=N108.1.2.3.4 Bus2=N109.1.2.3.4 Length= 268.03 units=ft Spacing=3PH_H_3_YYYY wires=[336_ACSR 336_ACSR 336_ACSR 336_ACSR] faultrate=4.8606136e-05 repair=3.7
New line.L5000_110 Phases=3 Bus1=N109.1.2.3.4 Bus2=N110.1.2.3.4 Length= 209.86 units=ft Spacing=3PH_H_3_YYYY wires=[336_ACSR 336_ACSR 336_ACSR 336_ACSR] faultrate=4.8606136e-05 repair=3.7
New line.L5000_111 Phases=3 Bus1=N110.1.2.3.4 Bus2=N111.1.2.3.4 Length= 222.90 units=ft Spacing=3PH_H_3_YYYY wires=[336_ACSR 336_ACSR 336_ACSR 336_ACSR] faultrate=4.8606136e-05 repair=3.7
New line.L5000_112 Phases=3 Bus1=N111.1.2.3.4 Bus2=N112.1.2.3.4 Length= 222.24 units=ft Spacing=3PH_H_3_YYYY wires=[336_ACSR 336_ACSR 336_ACSR 336_ACSR] faultrate=4.8606136e-05 repair=3.7
New line.L5000_113 Phases=3 Bus1=N112.1.2.3.4 Bus2=N113.1.2.3.4 Length= 237.63 units=ft Spacing=3PH_H_3_YYYY wires=[336_ACSR 336_ACSR 336_ACSR 336_ACSR] faultrate=4.8606136e-05 repair=3.7

New line.L5000_113_1 Phases=3 Bus1=N113.1.2.3.4 Bus2=N01131.1.2.3.4 Length= 163.22 units=ft Spacing=3PH_H_3_YYYY wires=[336_ACSR 336_ACSR 336_ACSR 336_ACSR] faultrate=4.8606136e-05 repair=3.7
New line.L5000_114 Phases=3 Bus1=N113.1.2.3.4 Bus2=N114.1.2.3.4 Length= 246.66 units=ft Spacing=3PH_H_3_YYYY wires=[336_ACSR 336_ACSR 336_ACSR 336_ACSR] faultrate=4.8606136e-05 repair=3.7

New line.L5000_114_1 Phases=3 Bus1=N114.1.2.3.4 Bus2=N01141.1.2.3.4 Length= 134.86 units=ft Spacing=3PH_H_3_YYYY wires=[6A_CW 6A_CW 6A_CW 6A_CW] faultrate=4.8606136e-05 repair=3.7

New line.L5000_115 Phases=3 Bus1=N114.1.2.3.4 Bus2=N115.1.2.3.4 Length= 266.10 units=ft Spacing=3PH_H_3_YYYY wires=[6A_CW 6A_CW 6A_CW 6A_CW] faultrate=4.8606136e-05 repair=3.7
New line.L5000_116 Phases=3 Bus1=N115.1.2.3.4 Bus2=N116.1.2.3.4 Length= 115.51 units=ft Spacing=3PH_H_3_YYYY wires=[6A_CW 6A_CW 6A_CW 6A_CW] faultrate=4.8606136e-05 repair=3.7
New line.L5000_117 Phases=3 Bus1=N116.1.2.3.4 Bus2=N117.1.2.3.4 Length= 312.92 units=ft Spacing=3PH_H_3_YYYY wires=[6A_CW 6A_CW 6A_CW 6A_CW] faultrate=4.8606136e-05 repair=3.7
New line.L5000_118 Phases=3 Bus1=N117.1.2.3.4 Bus2=N118.1.2.3.4 Length= 202.14 units=ft Spacing=3PH_H_3_YYYY wires=[6A_CW 6A_CW 6A_CW 6A_CW] faultrate=4.8606136e-05 repair=3.7
New line.L5000_119 Phases=3 Bus1=N118.1.2.3.4 Bus2=N119.1.2.3.4 Length= 316.67 units=ft Spacing=3PH_H_3_YYYY wires=[6A_CW 6A_CW 6A_CW 6A_CW] faultrate=4.8606136e-05 repair=3.7
New line.L5000_120 Phases=3 Bus1=N119.1.2.3.4 Bus2=N120.1.2.3.4 Length= 138.93 units=ft Spacing=3PH_H_3_YYYY wires=[6A_CW 6A_CW 6A_CW 6A_CW] faultrate=4.8606136e-05 repair=3.7

New line.L5000_120_1 Phases=3 Bus1=N120.1.2.3.4 Bus2=N01201.1.2.3.4 Length= 230.73 units=ft Spacing=3PH_H_3_YYYY wires=[336_ACSR 336_ACSR 336_ACSR 336_ACSR] faultrate=4.8606136e-05 repair=3.7
New line.L5000_120_2 Phases=3 Bus1=N01201.1.2.3.4 Bus2=N01202.1.2.3.4 Length= 263.33 units=ft Spacing=3PH_H_3_YYYY wires=[336_ACSR 336_ACSR 336_ACSR 336_ACSR] faultrate=4.8606136e-05 repair=3.7
New line.L5000_120_3 Phases=3 Bus1=N01202.1.2.3.4 Bus2=N01203.1.2.3.4 Length= 253.62 units=ft Spacing=3PH_H_3_YYYY wires=[336_ACSR 336_ACSR 336_ACSR 336_ACSR] faultrate=4.8606136e-05 repair=3.7

New line.L5000_121 Phases=3 Bus1=N120.1.2.3.4 Bus2=N121.1.2.3.4 Length= 179.97 units=ft Spacing=3PH_H_3_YYYY wires=[336_ACSR 336_ACSR 336_ACSR 336_ACSR] faultrate=4.8606136e-05 repair=3.7
New line.L5000_123 Phases=3 Bus1=N121.1.2.3.4 Bus2=N123.1.2.3.4 Length= 319.15 units=ft Spacing=3PH_H_3_YYYY wires=[1/0_ACSR 1/0_ACSR 1/0_ACSR 1/0_ACSR] faultrate=4.8606136e-05 repair=3.7
New line.L5000_124 Phases=3 Bus1=N123.1.2.3.4 Bus2=N124.1.2.3.4 Length= 381.12 units=ft Spacing=3PH_H_3_YYYY wires=[6A_CW 6A_CW 6A_CW 6A_CW] faultrate=4.8606136e-05 repair=3.7
New line.L5000_124_1 Phases=3 Bus1=N124.1.2.3.4 Bus2=N01241.1.2.3.4 Length= 170.80 units=ft Spacing=3PH_H_3_YYYY wires=[6A_CW 6A_CW 6A_CW 6A_CW] faultrate=4.8606136e-05 repair=3.7

New line.L5000_125 Phases=3 Bus1=N124.1.2.3.4 Bus2=N125.1.2.3.4 Length= 151.16 units=ft Spacing=3PH_H_3_YYYY wires=[1/0_ACSR 1/0_ACSR 1/0_ACSR 1/0_ACSR] faultrate=4.8606136e-05 repair=3.7
New line.L5000_126 Phases=3 Bus1=N125.1.2.3.4 Bus2=N126.1.2.3.4 Length= 235.18 units=ft Spacing=3PH_H_3_YYYY wires=[336_ACSR 336_ACSR 336_ACSR 336_ACSR] faultrate=4.8606136e-05 repair=3.7
New line.L5000_127 Phases=3 Bus1=N126.1.2.3.4 Bus2=N127.1.2.3.4 Length= 211.24 units=ft Spacing=3PH_H_3_YYYY wires=[336_ACSR 336_ACSR 336_ACSR 336_ACSR] faultrate=4.8606136e-05 repair=3.7
New line.L5000_128 Phases=3 Bus1=N127.1.2.3.4 Bus2=N128.1.2.3.4 Length= 215.34 units=ft Spacing=3PH_H_3_YYYY wires=[336_ACSR 336_ACSR 336_ACSR 336_ACSR] faultrate=4.8606136e-05 repair=3.7
New line.L5000_129 Phases=3 Bus1=N128.1.2.3.4 Bus2=N129.1.2.3.4 Length= 251.78 units=ft Spacing=3PH_H_3_YYYY wires=[336_ACSR 336_ACSR 336_ACSR 336_ACSR] faultrate=4.8606136e-05 repair=3.7
New line.L5000_130 Phases=3 Bus1=N129.1.2.3.4 Bus2=N130.1.2.3.4 Length= 170.20 units=ft Spacing=3PH_H_3_YYYY wires=[336_ACSR 336_ACSR 336_ACSR 336_ACSR] faultrate=4.8606136e-05 repair=3.7

New line.L5000_130_1 Phases=3 Bus1=N130.1.2.3.4 Bus2=N01301.1.2.3.4 Length= 140.59 units=ft Spacing=3PH_H_3_YYYY wires=[6A_CW 6A_CW 6A_CW 6A_CW] faultrate=4.8606136e-05 repair=3.7
New line.L5000_130_2 Phases=3 Bus1=N01301.1.2.3.4 Bus2=N01302.1.2.3.4 Length= 285.81 units=ft Spacing=3PH_H_3_YYYY wires=[6A_CW 6A_CW 6A_CW 6A_CW] faultrate=4.8606136e-05 repair=3.7

New line.L5000_132 Phases=3 Bus1=N130.1.2.3.4 Bus2=N132.1.2.3.4 Length= 174.21 units=ft Spacing=3PH_H_3_YYYY wires=[336_ACSR 336_ACSR 336_ACSR 336_ACSR] faultrate=4.8606136e-05 repair=3.7
New line.L5000_133 Phases=3 Bus1=N132.1.2.3.4 Bus2=N133.1.2.3.4 Length= 205.66 units=ft Spacing=3PH_H_3_YYYY wires=[336_ACSR 336_ACSR 336_ACSR 336_ACSR] faultrate=4.8606136e-05 repair=3.7

New line.L5000_133_1 Phases=3 Bus1=N133.1.2.3.4 Bus2=N01331.1.2.3.4 Length= 386.53 units=ft Spacing=3PH_H_3_YYYY wires=[336_ACSR 336_ACSR 336_ACSR 336_ACSR] faultrate=4.8606136e-05 repair=3.7
New line.L5000_133_1_1 Phases=3 Bus1=N01331.1.2.3.4 Bus2=N013311.1.2.3.4 Length= 106.89 units=ft Spacing=3PH_H_3_YYYY wires=[4/0_ACSR 4/0_ACSR 4/0_ACSR 4/0_ACSR] faultrate=4.8606136e-05 repair=3.7
New line.L5000_133_2 Phases=3 Bus1=N013311.1.2.3.4 Bus2=N01332.1.2.3.4 Length= 495.29 units=ft Spacing=3PH_H_3_YYYY wires=[336_ACSR 336_ACSR 336_ACSR 336_ACSR] faultrate=4.8606136e-05 repair=3.7
New line.L5000_133_3 Phases=3 Bus1=N01332.1.2.3.4 Bus2=N01333.1.2.3.4 Length= 622.77 units=ft Spacing=3PH_H_3_YYYY wires=[336_ACSR 336_ACSR 336_ACSR 336_ACSR] faultrate=4.8606136e-05 repair=3.7
New line.L5000_133_4 Phases=3 Bus1=N01333.1.2.3.4 Bus2=N01334.1.2.3.4 Length= 391.26 units=ft Spacing=3PH_H_3_YYYY wires=[336_ACSR 336_ACSR 336_ACSR 336_ACSR] faultrate=4.8606136e-05 repair=3.7

New line.L5000_134 Phases=3 Bus1=N133.1.2.3.4 Bus2=N134.1.2.3.4 Length= 202.32 units=ft Spacing=3PH_H_3_YYYY wires=[336_ACSR 336_ACSR 336_ACSR 336_ACSR] faultrate=4.8606136e-05 repair=3.7
New line.L5000_135 Phases=3 Bus1=N134.1.2.3.4 Bus2=N135.1.2.3.4 Length= 201.56 units=ft Spacing=3PH_H_3_YYYY wires=[336_ACSR 336_ACSR 336_ACSR 336_ACSR] faultrate=4.8606136e-05 repair=3.7
New line.L5000_136 Phases=3 Bus1=N135.1.2.3.4 Bus2=N136.1.2.3.4 Length= 187.16 units=ft Spacing=3PH_H_3_YYYY wires=[336_ACSR 336_ACSR 336_ACSR 336_ACSR] faultrate=4.8606136e-05 repair=3.7
New line.L5000_137 Phases=3 Bus1=N136.1.2.3.4 Bus2=N137.1.2.3.4 Length= 194.65 units=ft Spacing=3PH_H_3_YYYY wires=[336_ACSR 336_ACSR 336_ACSR 336_ACSR] faultrate=4.8606136e-05 repair=3.7
New line.L5000_138 Phases=3 Bus1=N137.1.2.3.4 Bus2=N138.1.2.3.4 Length= 180.17 units=ft Spacing=3PH_H_3_YYYY wires=[336_ACSR 336_ACSR 336_ACSR 336_ACSR] faultrate=4.8606136e-05 repair=3.7
New line.L5000_139 Phases=3 Bus1=N138.1.2.3.4 Bus2=N139.1.2.3.4 Length= 134.90 units=ft Spacing=3PH_H_3_YYYY wires=[336_ACSR 336_ACSR 336_ACSR 336_ACSR] faultrate=4.8606136e-05 repair=3.7
New line.L5000_140 Phases=3 Bus1=N139.1.2.3.4 Bus2=N140.1.2.3.4 Length= 182.52 units=ft Spacing=3PH_H_3_YYYY wires=[336_ACSR 336_ACSR 336_ACSR 336_ACSR] faultrate=4.8606136e-05 repair=3.7
New line.L5000_141 Phases=3 Bus1=N140.1.2.3.4 Bus2=N141.1.2.3.4 Length= 176.72 units=ft Spacing=3PH_H_3_YYYY wires=[336_ACSR 336_ACSR 336_ACSR 336_ACSR] faultrate=4.8606136e-05 repair=3.7

New line.L5000_141_1 Phases=3 Bus1=N141.1.2.3.4 Bus2=N01411.1.2.3.4 Length= 171.11 units=ft Spacing=3PH_H_3_YYYY wires=[336_ACSR 336_ACSR 336_ACSR 336_ACSR] faultrate=4.8606136e-05 repair=3.7
New line.L5000_141_2 Phases=3 Bus1=N01411.1.2.3.4 Bus2=N01412.1.2.3.4 Length= 140.04 units=ft Spacing=3PH_H_3_YYYY wires=[336_ACSR 336_ACSR 336_ACSR 336_ACSR] faultrate=4.8606136e-05 repair=3.7
New line.L5000_141_3 Phases=3 Bus1=N01412.1.2.3.4 Bus2=N01413.1.2.3.4 Length= 106.77 units=ft Spacing=3PH_H_3_YYYY wires=[336_ACSR 336_ACSR 336_ACSR 336_ACSR] faultrate=4.8606136e-05 repair=3.7

New line.L5000_142 Phases=3 Bus1=N141.1.2.3.4 Bus2=N142.1.2.3.4 Length= 158.18 units=ft Spacing=3PH_H_3_YYYY wires=[336_ACSR 336_ACSR 336_ACSR 336_ACSR] faultrate=4.8606136e-05 repair=3.7
New line.L5000_143 Phases=3 Bus1=N142.1.2.3.4 Bus2=N143.1.2.3.4 Length= 214.21 units=ft Spacing=3PH_H_3_YYYY wires=[4_ALUM 4_ALUM 4_ALUM 336_ACSR] faultrate=4.8606136e-05 repair=3.7
New line.L5000_144 Phases=3 Bus1=N143.1.2.3.4 Bus2=N144.1.2.3.4 Length= 252.38 units=ft Spacing=3PH_H_3_YYYY wires=[336_ACSR 336_ACSR 336_ACSR 336_ACSR] faultrate=4.8606136e-05 repair=3.7



! ******************************L5100 2 ph********************************************************************************************************************************************************************************************************

New line.L5100_1 Phases=2 Bus1=N37.1.2 Bus2=P1.1.2 Length= 135 units=ft Spacing=2PH_H_2_NYYY wires=[4_ALUM 4_ALUM 4_ALUM] faultrate=4.8606136e-05 repair=3.7
New line.L5100_1_1 Phases=2 Bus1=P1.1.2 Bus2=P011.1.2 Length= 70.01 units=ft Spacing=2PH_H_2_NYYY wires=[336_ACSR 336_ACSR 336_ACSR] faultrate=4.8606136e-05 repair=3.7
New line.L5100_2 Phases=2 Bus1=P011.1.2 Bus2=P2.1.2 Length= 99.25 units=ft Spacing=2PH_H_2_NYYY wires=[336_ACSR 336_ACSR 336_ACSR] faultrate=4.8606136e-05 repair=3.7
New line.L5100_4 Phases=2 Bus1=P2.1.2 Bus2=P4.1.2 Length= 159.25 units=ft Spacing=2PH_H_2_NYYY wires=[336_ACSR 336_ACSR 336_ACSR] faultrate=4.8606136e-05 repair=3.7
New line.L5100_4_1 Phases=2 Bus1=P4.1.2 Bus2=P041.1.2 Length= 71.51 units=ft Spacing=2PH_H_2_NYYY wires=[336_ACSR 336_ACSR 336_ACSR] faultrate=4.8606136e-05 repair=3.7
New line.L5100_5 Phases=2 Bus1=P4.1.2 Bus2=P5.1.2 Length= 43.83 units=ft Spacing=2PH_H_2_NYYY wires=[4_ALUM 4_ALUM 4_ALUM] faultrate=4.8606136e-05 repair=3.7
New line.L5100_5_1 Phases=2 Bus1=P5.1.2 Bus2=P051.1.2 Length= 118.93 units=ft Spacing=2PH_H_2_NYYY wires=[336_ACSR 336_ACSR 336_ACSR] faultrate=4.8606136e-05 repair=3.7
New line.L5100_5_2 Phases=2 Bus1=P5.1.2 Bus2=P052.1.2 Length= 198.22 units=ft Spacing=2PH_H_2_NYYY wires=[336_ACSR 336_ACSR 336_ACSR] faultrate=4.8606136e-05 repair=3.7
New line.L5100_5_3 Phases=2 Bus1=P052.1.2 Bus2=P053.1.2 Length= 167.21 units=ft Spacing=2PH_H_2_NYYY wires=[336_ACSR 336_ACSR 336_ACSR] faultrate=4.8606136e-05 repair=3.7


! ******************************L5300 3 ph*******************************************************************************************************************************************************************************************************

New line.L5300_1 Phases=3 Bus1=N55.1.2.3.4 Bus2=Q1.1.2.3.4 Length= 107.10 units=ft Spacing=3PH_H_3_YYYY wires=[336_ACSR 336_ACSR 336_ACSR 336_ACSR] faultrate=4.8606136e-05 repair=3.7
New line.L5300_2 Phases=3 Bus1=Q1.1.2.3.4 Bus2=Q2.1.2.3.4 Length= 85.30 units=ft Spacing=3PH_H_3_YYYY wires=[336_ACSR 336_ACSR 336_ACSR 336_ACSR] faultrate=4.8606136e-05 repair=3.7
New line.L5300_3 Phases=3 Bus1=Q2.1.2.3.4 Bus2=Q3.1.2.3.4 Length= 92.50 units=ft Spacing=3PH_H_3_YYYY wires=[336_ACSR 336_ACSR 336_ACSR 336_ACSR] faultrate=4.8606136e-05 repair=3.7
New line.L5300_4 Phases=3 Bus1=Q3.1.2.3.4 Bus2=Q4.1.2.3.4 Length= 110.26 units=ft Spacing=3PH_H_3_YYYY wires=[336_ACSR 336_ACSR 336_ACSR 336_ACSR] faultrate=4.8606136e-05 repair=3.7
New line.L5300_5 Phases=3 Bus1=Q4.1.2.3.4 Bus2=Q5.1.2.3.4 Length= 92.74 units=ft Spacing=3PH_H_3_YYYY wires=[336_ACSR 336_ACSR 336_ACSR 336_ACSR] faultrate=4.8606136e-05 repair=3.7
New line.L5300_6 Phases=3 Bus1=Q5.1.2.3.4 Bus2=Q6.1.2.3.4 Length= 83.03 units=ft Spacing=3PH_H_3_YYYY wires=[336_ACSR 336_ACSR 336_ACSR 336_ACSR] faultrate=4.8606136e-05 repair=3.7
New line.L5300_6_5 Phases=3 Bus1=Q6.1.2.3.4 Bus2=Q065.1.2.3.4 Length= 54.36 units=ft Spacing=3PH_H_3_YYYY wires=[336_ACSR 336_ACSR 336_ACSR 336_ACSR] faultrate=4.8606136e-05 repair=3.7
New line.L5300_7 Phases=3 Bus1=Q065.1.2.3.4 Bus2=Q7.1.2.3.4 Length= 62.94 units=ft Spacing=3PH_H_3_YYYY wires=[336_ACSR 336_ACSR 336_ACSR 336_ACSR] faultrate=4.8606136e-05 repair=3.7
New line.L5300_8 Phases=3 Bus1=Q7.1.2.3.4 Bus2=Q8.1.2.3.4 Length= 97.89 units=ft Spacing=3PH_H_3_YYYY wires=[336_ACSR 336_ACSR 336_ACSR 336_ACSR] faultrate=4.8606136e-05 repair=3.7
New line.L5300_9 Phases=3 Bus1=Q8.1.2.3.4 Bus2=Q9.1.2.3.4 Length= 109.72 units=ft Spacing=3PH_H_3_YYYY wires=[336_ACSR 336_ACSR 336_ACSR 336_ACSR] faultrate=4.8606136e-05 repair=3.7
New line.L5300_10 Phases=3 Bus1=Q9.1.2.3.4 Bus2=Q10.1.2.3.4 Length= 99.89 units=ft Spacing=3PH_H_3_YYYY wires=[336_ACSR 336_ACSR 336_ACSR 336_ACSR] faultrate=4.8606136e-05 repair=3.7
New line.L5300_11 Phases=3 Bus1=Q10.1.2.3.4 Bus2=Q11.1.2.3.4 Length= 102.32 units=ft Spacing=3PH_H_3_YYYY wires=[336_ACSR 336_ACSR 336_ACSR 336_ACSR] faultrate=4.8606136e-05 repair=3.7
New line.L5300_12 Phases=3 Bus1=Q11.1.2.3.4 Bus2=Q12.1.2.3.4 Length= 97.28 units=ft Spacing=3PH_H_3_YYYY wires=[336_ACSR 336_ACSR 336_ACSR 336_ACSR] faultrate=4.8606136e-05 repair=3.7
New line.L5300_13 Phases=3 Bus1=Q12.1.2.3.4 Bus2=Q13.1.2.3.4 Length= 94.84 units=ft Spacing=3PH_H_3_YYYY wires=[336_ACSR 336_ACSR 336_ACSR 336_ACSR] faultrate=4.8606136e-05 repair=3.7
New line.L5300_14 Phases=3 Bus1=Q13.1.2.3.4 Bus2=Q14.1.2.3.4 Length= 141.92 units=ft Spacing=3PH_H_3_YYYY wires=[336_ACSR 336_ACSR 336_ACSR 336_ACSR] faultrate=4.8606136e-05 repair=3.7

New line.L5300_14_1 Phases=3 Bus1=Q14.1.2.3.4 Bus2=Q0141.1.2.3.4 Length= 120.76 units=ft Spacing=3PH_H_3_YYYY wires=[336_ACSR 336_ACSR 336_ACSR 336_ACSR] faultrate=4.8606136e-05 repair=3.7
New line.L5300_14_2 Phases=3 Bus1=Q0141.1.2.3.4 Bus2=Q0142.1.2.3.4 Length= 97.30 units=ft Spacing=3PH_H_3_YYYY wires=[336_ACSR 336_ACSR 336_ACSR 336_ACSR] faultrate=4.8606136e-05 repair=3.7
New line.L5300_14_3 Phases=3 Bus1=Q0142.1.2.3.4 Bus2=Q0143.1.2.3.4 Length= 107.50 units=ft Spacing=3PH_H_3_YYYY wires=[336_ACSR 336_ACSR 336_ACSR 336_ACSR] faultrate=4.8606136e-05 repair=3.7
New line.L5300_14_4 Phases=3 Bus1=Q0143.1.2.3.4 Bus2=Q0144.1.2.3.4 Length= 119.00 units=ft Spacing=3PH_H_3_YYYY wires=[336_ACSR 336_ACSR 336_ACSR 336_ACSR] faultrate=4.8606136e-05 repair=3.7
New line.L5300_14_5 Phases=3 Bus1=Q0144.1.2.3.4 Bus2=Q0145.1.2.3.4 Length= 66.80 units=ft Spacing=3PH_H_3_YYYY wires=[336_ACSR 336_ACSR 336_ACSR 336_ACSR] faultrate=4.8606136e-05 repair=3.7

New line.L5300_15 Phases=3 Bus1=Q14.1.2.3.4 Bus2=Q15.1.2.3.4 Length= 118.53 units=ft Spacing=3PH_H_3_YYYY wires=[336_ACSR 336_ACSR 336_ACSR 336_ACSR] faultrate=4.8606136e-05 repair=3.7
New line.L5300_16 Phases=3 Bus1=Q15.1.2.3.4 Bus2=Q16.1.2.3.4 Length= 97.60 units=ft Spacing=3PH_H_3_YYYY wires=[336_ACSR 336_ACSR 336_ACSR 336_ACSR] faultrate=4.8606136e-05 repair=3.7
New line.L5300_17 Phases=3 Bus1=Q16.1.2.3.4 Bus2=Q17.1.2.3.4 Length= 98.41 units=ft Spacing=3PH_H_3_YYYY wires=[336_ACSR 336_ACSR 336_ACSR 336_ACSR] faultrate=4.8606136e-05 repair=3.7
New line.L5300_18 Phases=3 Bus1=Q17.1.2.3.4 Bus2=Q18.1.2.3.4 Length= 100.36 units=ft Spacing=3PH_H_3_YYYY wires=[336_ACSR 336_ACSR 336_ACSR 336_ACSR] faultrate=4.8606136e-05 repair=3.7
New line.L5300_19 Phases=3 Bus1=Q18.1.2.3.4 Bus2=Q19.1.2.3.4 Length= 122.77 units=ft Spacing=3PH_H_3_YYYY wires=[336_ACSR 336_ACSR 336_ACSR 336_ACSR] faultrate=4.8606136e-05 repair=3.7
New line.L5300_20 Phases=3 Bus1=Q19.1.2.3.4 Bus2=Q20.1.2.3.4 Length= 179.22 units=ft Spacing=3PH_H_3_YYYY wires=[336_ACSR 336_ACSR 336_ACSR 336_ACSR] faultrate=4.8606136e-05 repair=3.7





! ******************************L5400 3 ph*****************************************************************************************************************************************************************************************************


New line.L5400_1 Phases=3 Bus1=N72.1.2.3.4 Bus2=R1.1.2.3.4 Length= 70.11 units=ft Spacing=3PH_H_3_YYYY wires=[336_ACSR 336_ACSR 336_ACSR 336_ACSR] faultrate=4.8606136e-05 repair=3.7
New line.L5400_2 Phases=3 Bus1=R1.1.2.3.4 Bus2=R2.1.2.3.4 Length= 273.16 units=ft Spacing=3PH_H_3_YYYY wires=[336_ACSR 336_ACSR 336_ACSR 336_ACSR] faultrate=4.8606136e-05 repair=3.7
New line.L5400_2_1 Phases=3 Bus1=R2.1.2.3.4 Bus2=R021.1.2.3.4 Length= 61.71 units=ft Spacing=3PH_H_3_YYYY wires=[336_ACSR 336_ACSR 336_ACSR 336_ACSR] faultrate=4.8606136e-05 repair=3.7
New line.L5400_3 Phases=3 Bus1=R2.1.2.3.4 Bus2=R3.1.2.3.4 Length= 296.46 units=ft Spacing=3PH_H_3_YYYY wires=[336_ACSR 336_ACSR 336_ACSR 336_ACSR] faultrate=4.8606136e-05 repair=3.7
New line.L5400_4 Phases=3 Bus1=R3.1.2.3.4 Bus2=R4.1.2.3.4 Length= 260.07 units=ft Spacing=3PH_H_3_YYYY wires=[336_ACSR 336_ACSR 336_ACSR 336_ACSR] faultrate=4.8606136e-05 repair=3.7
New line.L5400_5 Phases=3 Bus1=R4.1.2.3.4 Bus2=R5.1.2.3.4 Length= 126.35 units=ft Spacing=3PH_H_3_YYYY wires=[336_ACSR 336_ACSR 336_ACSR 336_ACSR] faultrate=4.8606136e-05 repair=3.7
New line.L5400_6 Phases=3 Bus1=R5.1.2.3.4 Bus2=R6.1.2.3.4 Length= 168.89 units=ft Spacing=3PH_H_3_YYYY wires=[336_ACSR 336_ACSR 336_ACSR 336_ACSR] faultrate=4.8606136e-05 repair=3.7
New line.L5400_7 Phases=3 Bus1=R6.1.2.3.4 Bus2=R7.1.2.3.4 Length= 164.13 units=ft Spacing=3PH_H_3_YYYY wires=[336_ACSR 336_ACSR 336_ACSR 336_ACSR] faultrate=4.8606136e-05 repair=3.7
New line.L5400_8 Phases=3 Bus1=R7.1.2.3.4 Bus2=R8.1.2.3.4 Length= 139.16 units=ft Spacing=3PH_H_3_YYYY wires=[336_ACSR 336_ACSR 336_ACSR 336_ACSR] faultrate=4.8606136e-05 repair=3.7
New line.L5400_9 Phases=3 Bus1=R8.1.2.3.4 Bus2=R9.1.2.3.4 Length= 124.48 units=ft Spacing=3PH_H_3_YYYY wires=[336_ACSR 336_ACSR 336_ACSR 336_ACSR] faultrate=4.8606136e-05 repair=3.7
New line.L5400_10 Phases=3 Bus1=R9.1.2.3.4 Bus2=R10.1.2.3.4 Length= 161.19 units=ft Spacing=3PH_H_3_YYYY wires=[336_ACSR 336_ACSR 336_ACSR 336_ACSR] faultrate=4.8606136e-05 repair=3.7
New line.L5400_11 Phases=3 Bus1=R10.1.2.3.4 Bus2=R11.1.2.3.4 Length= 96.89 units=ft Spacing=3PH_H_3_YYYY wires=[336_ACSR 336_ACSR 336_ACSR 336_ACSR] faultrate=4.8606136e-05 repair=3.7
New line.L5400_12 Phases=3 Bus1=R11.1.2.3.4 Bus2=R12.1.2.3.4 Length= 195.63 units=ft Spacing=3PH_H_3_YYYY wires=[336_ACSR 336_ACSR 336_ACSR 336_ACSR] faultrate=4.8606136e-05 repair=3.7
New line.L5400_13 Phases=3 Bus1=R12.1.2.3.4 Bus2=R13.1.2.3.4 Length= 173.29 units=ft Spacing=3PH_H_3_YYYY wires=[336_ACSR 336_ACSR 336_ACSR 336_ACSR] faultrate=4.8606136e-05 repair=3.7
New line.L5400_14 Phases=3 Bus1=R13.1.2.3.4 Bus2=R14.1.2.3.4 Length= 132.46 units=ft Spacing=3PH_H_3_YYYY wires=[336_ACSR 336_ACSR 336_ACSR 336_ACSR] faultrate=4.8606136e-05 repair=3.7
New line.L5400_15 Phases=3 Bus1=R14.1.2.3.4 Bus2=R15.1.2.3.4 Length= 128.63 units=ft Spacing=3PH_H_3_YYYY wires=[336_ACSR 336_ACSR 336_ACSR 336_ACSR] faultrate=4.8606136e-05 repair=3.7
New line.L5400_16 Phases=3 Bus1=R15.1.2.3.4 Bus2=R16.1.2.3.4 Length= 219.42 units=ft Spacing=3PH_H_3_YYYY wires=[336_ACSR 336_ACSR 336_ACSR 336_ACSR] faultrate=4.8606136e-05 repair=3.7
New line.L5400_17 Phases=3 Bus1=R16.1.2.3.4 Bus2=R17.1.2.3.4 Length= 208.35 units=ft Spacing=3PH_H_3_YYYY wires=[336_ACSR 336_ACSR 336_ACSR 336_ACSR] faultrate=4.8606136e-05 repair=3.7
New line.L5400_18 Phases=3 Bus1=R17.1.2.3.4 Bus2=R18.1.2.3.4 Length= 213.15 units=ft Spacing=3PH_H_3_YYYY wires=[336_ACSR 336_ACSR 336_ACSR 336_ACSR] faultrate=4.8606136e-05 repair=3.7
New line.L5400_19 Phases=3 Bus1=R18.1.2.3.4 Bus2=R19.1.2.3.4 Length= 244.64 units=ft Spacing=3PH_H_3_YYYY wires=[336_ACSR 336_ACSR 336_ACSR 336_ACSR] faultrate=4.8606136e-05 repair=3.7
New line.L5400_20 Phases=3 Bus1=R19.1.2.3.4 Bus2=R20.1.2.3.4 Length= 224.50 units=ft Spacing=3PH_H_3_YYYY wires=[336_ACSR 336_ACSR 336_ACSR 336_ACSR] faultrate=4.8606136e-05 repair=3.7
New line.L5400_21 Phases=3 Bus1=R20.1.2.3.4 Bus2=R21.1.2.3.4 Length= 210.25 units=ft Spacing=3PH_H_3_YYYY wires=[336_ACSR 336_ACSR 336_ACSR 336_ACSR] faultrate=4.8606136e-05 repair=3.7
New line.L5400_22 Phases=3 Bus1=R21.1.2.3.4 Bus2=R22.1.2.3.4 Length= 155.35 units=ft Spacing=3PH_H_3_YYYY wires=[336_ACSR 336_ACSR 336_ACSR 336_ACSR] faultrate=4.8606136e-05 repair=3.7

New line.L5400_23 Phases=3 Bus1=R22.1.2.3.4 Bus2=R23.1.2.3.4 Length= 172.18 units=ft Spacing=3PH_H_3_YYYY wires=[6A_CW 6A_CW 6A_CW 6A_CW] faultrate=4.8606136e-05 repair=3.7
New line.L5400_24 Phases=3 Bus1=R23.1.2.3.4 Bus2=R24.1.2.3.4 Length= 169.27 units=ft Spacing=3PH_H_3_YYYY wires=[6A_CW 6A_CW 6A_CW 6A_CW] faultrate=4.8606136e-05 repair=3.7
New line.L5400_25 Phases=3 Bus1=R24.1.2.3.4 Bus2=R25.1.2.3.4 Length= 265.36 units=ft Spacing=3PH_H_3_YYYY wires=[6A_CW 6A_CW 6A_CW 6A_CW] faultrate=4.8606136e-05 repair=3.7
New line.L5400_25_1 Phases=3 Bus1=R25.1.2.3.4 Bus2=R0251.1.2.3.4 Length= 114.14 units=ft Spacing=3PH_H_3_YYYY wires=[6A_CW 6A_CW 6A_CW 6A_CW] faultrate=4.8606136e-05 repair=3.7

New line.L5400_27 Phases=3 Bus1=R25.1.2.3.4 Bus2=R27.1.2.3.4 Length= 514.55 units=ft Spacing=3PH_H_3_YYYY wires=[336_ACSR 336_ACSR 336_ACSR 336_ACSR] faultrate=4.8606136e-05 repair=3.7
New line.L5400_28 Phases=3 Bus1=R27.1.2.3.4 Bus2=R28.1.2.3.4 Length= 266.65 units=ft Spacing=3PH_H_3_YYYY wires=[336_ACSR 336_ACSR 336_ACSR 336_ACSR] faultrate=4.8606136e-05 repair=3.7
New line.L5400_29 Phases=3 Bus1=R28.1.2.3.4 Bus2=R29.1.2.3.4 Length= 302.32 units=ft Spacing=3PH_H_3_YYYY wires=[336_ACSR 336_ACSR 336_ACSR 336_ACSR] faultrate=4.8606136e-05 repair=3.7
New line.L5400_30 Phases=3 Bus1=R29.1.2.3.4 Bus2=R30.1.2.3.4 Length= 327.61 units=ft Spacing=3PH_H_3_YYYY wires=[336_ACSR 336_ACSR 336_ACSR 336_ACSR] faultrate=4.8606136e-05 repair=3.7
New line.L5400_31 Phases=3 Bus1=R30.1.2.3.4 Bus2=R31.1.2.3.4 Length= 209.11 units=ft Spacing=3PH_H_3_YYYY wires=[336_ACSR 336_ACSR 336_ACSR 336_ACSR] faultrate=4.8606136e-05 repair=3.7
New line.L5400_32 Phases=3 Bus1=R31.1.2.3.4 Bus2=R32.1.2.3.4 Length= 166.20 units=ft Spacing=3PH_H_3_YYYY wires=[336_ACSR 336_ACSR 336_ACSR 336_ACSR] faultrate=4.8606136e-05 repair=3.7
New line.L5400_33 Phases=3 Bus1=R32.1.2.3.4 Bus2=R33.1.2.3.4 Length= 247.81 units=ft Spacing=3PH_H_3_YYYY wires=[336_ACSR 336_ACSR 336_ACSR 336_ACSR] faultrate=4.8606136e-05 repair=3.7
New line.L5400_34 Phases=3 Bus1=R33.1.2.3.4 Bus2=R34.1.2.3.4 Length= 249.51 units=ft Spacing=3PH_H_3_YYYY wires=[336_ACSR 336_ACSR 336_ACSR 336_ACSR] faultrate=4.8606136e-05 repair=3.7
New line.L5400_35 Phases=3 Bus1=R34.1.2.3.4 Bus2=R35.1.2.3.4 Length= 196.47 units=ft Spacing=3PH_H_3_YYYY wires=[336_ACSR 336_ACSR 336_ACSR 336_ACSR] faultrate=4.8606136e-05 repair=3.7
New line.L5400_36 Phases=3 Bus1=R35.1.2.3.4 Bus2=R36.1.2.3.4 Length= 227.42 units=ft Spacing=3PH_H_3_YYYY wires=[336_ACSR 336_ACSR 336_ACSR 336_ACSR] faultrate=4.8606136e-05 repair=3.7
New line.L5400_37 Phases=3 Bus1=R36.1.2.3.4 Bus2=R37.1.2.3.4 Length= 225.75 units=ft Spacing=3PH_H_3_YYYY wires=[336_ACSR 336_ACSR 336_ACSR 336_ACSR] faultrate=4.8606136e-05 repair=3.7

New line.L5420_0_5 Phases=3 Bus1=R22.1.2.3.4 Bus2=RR05.1.2.3.4 Length= 272.48 units=ft Spacing=3PH_H_3_YYYY wires=[336_ACSR 336_ACSR 336_ACSR 336_ACSR] faultrate=4.8606136e-05 repair=3.7
New line.L5420_1 Phases=3 Bus1=RR05.1.2.3.4 Bus2=RR1.1.2.3.4 Length= 107.90 units=ft Spacing=3PH_H_3_YYYY wires=[336_ACSR 336_ACSR 336_ACSR 336_ACSR] faultrate=4.8606136e-05 repair=3.7
New line.L5420_2 Phases=3 Bus1=RR1.1.2.3.4 Bus2=RR2.1.2.3.4 Length= 94.98 units=ft Spacing=3PH_H_3_YYYY wires=[336_ACSR 336_ACSR 336_ACSR  336_ACSR] faultrate=4.8606136e-05 repair=3.7
New line.L5420_2_1 Phases=3 Bus1=RR2.1.2.3.4 Bus2=RR021.1.2.3.4 Length= 195.13 units=ft Spacing=3PH_H_3_YYYY wires=[6A_CW 6A_CW 6A_CW 336_ACSR] faultrate=4.8606136e-05 repair=3.7
New line.L5420_3 Phases=3 Bus1=RR2.1.2.3.4 Bus2=RR3.1.2.3.4 Length= 173.69 units=ft Spacing=3PH_H_3_YYYY wires=[336_ACSR 336_ACSR 336_ACSR  336_ACSR] faultrate=4.8606136e-05 repair=3.7
New line.L5420_4 Phases=3 Bus1=RR3.1.2.3.4 Bus2=RR4.1.2.3.4 Length= 320.50 units=ft Spacing=3PH_H_3_YYYY wires=[336_ACSR 336_ACSR 336_ACSR  336_ACSR] faultrate=4.8606136e-05 repair=3.7
New line.L5420_5 Phases=3 Bus1=RR4.1.2.3.4 Bus2=RR5.1.2.3.4 Length= 230.30 units=ft Spacing=3PH_H_3_YYYY wires=[336_ACSR 336_ACSR 336_ACSR  336_ACSR] faultrate=4.8606136e-05 repair=3.7
New line.L5420_6 Phases=3 Bus1=RR5.1.2.3.4 Bus2=RR6.1.2.3.4 Length= 196.13 units=ft Spacing=3PH_H_3_YYYY wires=[336_ACSR 336_ACSR 336_ACSR  336_ACSR] faultrate=4.8606136e-05 repair=3.7



! ****************************** L5500 1 ph PHASE C ****************************************************************************************************************************************************************************************

New line.L5500_1 Phases=1 Bus1=N86.3.4 Bus2=S1.3.4 Length= 278.11 units=ft Spacing=1PH_1_NNYY wires=[336_ACSR 336_ACSR] faultrate=4.8606136e-05 repair=3.7
New line.L5500_1_1 Phases=1 Bus1=S1.3.4 Bus2=S011.3.4 Length= 114.19 units=ft Spacing=1PH_1_NNYY wires=[336_ACSR 336_ACSR] faultrate=4.8606136e-05 repair=3.7
New line.L5500_2 Phases=1 Bus1=S1.3.4 Bus2=S2.3.4 Length= 155.24 units=ft Spacing=1PH_1_NNYY wires=[336_ACSR 336_ACSR] faultrate=4.8606136e-05 repair=3.7
New line.L5500_3 Phases=1 Bus1=S2.3.4 Bus2=S3.3.4 Length= 301.39 units=ft Spacing=1PH_1_NNYY wires=[336_ACSR 336_ACSR] faultrate=4.8606136e-05 repair=3.7
New line.L5500_4 Phases=1 Bus1=S3.3.4 Bus2=S4.3.4 Length= 215.13 units=ft Spacing=1PH_1_NNYY wires=[336_ACSR 336_ACSR] faultrate=4.8606136e-05 repair=3.7
New line.L5500_5 Phases=1 Bus1=S4.3.4 Bus2=S5.3.4 Length= 250.01 units=ft Spacing=1PH_1_NNYY wires=[336_ACSR 336_ACSR] faultrate=4.8606136e-05 repair=3.7
New line.L5500_6 Phases=1 Bus1=S5.3.4 Bus2=S6.3.4 Length= 217.03 units=ft Spacing=1PH_1_NNYY wires=[336_ACSR 336_ACSR] faultrate=4.8606136e-05 repair=3.7
New line.L5500_7 Phases=1 Bus1=S6.3.4 Bus2=S7.3.4 Length= 179.02 units=ft Spacing=1PH_1_NNYY wires=[336_ACSR 336_ACSR] faultrate=4.8606136e-05 repair=3.7
New line.L5500_8 Phases=1 Bus1=S7.3.4 Bus2=S8.3.4 Length= 173.49 units=ft Spacing=1PH_1_NNYY wires=[336_ACSR 336_ACSR] faultrate=4.8606136e-05 repair=3.7
New line.L5500_9 Phases=1 Bus1=S8.3.4 Bus2=S9.3.4 Length= 198.97 units=ft Spacing=1PH_1_NNYY wires=[336_ACSR 336_ACSR] faultrate=4.8606136e-05 repair=3.7
New line.L5500_10 Phases=1 Bus1=S9.3.4 Bus2=S10.3.4 Length= 288.60 units=ft Spacing=1PH_1_NNYY wires=[336_ACSR 336_ACSR] faultrate=4.8606136e-05 repair=3.7
New line.L5500_11 Phases=1 Bus1=S10.3.4 Bus2=S11.3.4 Length= 197.05 units=ft Spacing=1PH_1_NNYY wires=[336_ACSR 336_ACSR] faultrate=4.8606136e-05 repair=3.7
New line.L5500_12 Phases=1 Bus1=S11.3.4 Bus2=S12.3.4 Length= 216.09 units=ft Spacing=1PH_1_NNYY wires=[336_ACSR 336_ACSR] faultrate=4.8606136e-05 repair=3.7
New line.L5500_12.01 Phases=1 Bus1=S12.3.4 Bus2=S0121.3.4 Length= 115.13 units=ft Spacing=1PH_1_NNYY wires=[336_ACSR 336_ACSR] faultrate=4.8606136e-05 repair=3.7
New line.L5500_13 Phases=1 Bus1=S12.3.4 Bus2=S13.3.4 Length= 170.00 units=ft Spacing=1PH_1_NNYY wires=[336_ACSR 336_ACSR] faultrate=4.8606136e-05 repair=3.7
New line.L5500_14 Phases=1 Bus1=S13.3.4 Bus2=S14.3.4 Length= 198.27 units=ft Spacing=1PH_1_NNYY wires=[336_ACSR 336_ACSR] faultrate=4.8606136e-05 repair=3.7
New line.L5500_15 Phases=1 Bus1=S14.3.4 Bus2=S15.3.4 Length= 255.42 units=ft Spacing=1PH_1_NNYY wires=[336_ACSR 336_ACSR] faultrate=4.8606136e-05 repair=3.7
New line.L5500_16 Phases=1 Bus1=S15.3.4 Bus2=S16.3.4 Length= 252.48 units=ft Spacing=1PH_1_NNYY wires=[336_ACSR 336_ACSR] faultrate=4.8606136e-05 repair=3.7
New line.L5500_17 Phases=1 Bus1=S16.3.4 Bus2=S17.3.4 Length= 245.71 units=ft Spacing=1PH_1_NNYY wires=[336_ACSR 336_ACSR] faultrate=4.8606136e-05 repair=3.7
New line.L5500_17S Phases=1 Bus1=S17.3.4 Bus2=S17S.3.4 Length= 80.22 units=ft Spacing=1PH_1_NNYY wires=[336_ACSR 336_ACSR] faultrate=4.8606136e-05 repair=3.7
New line.L5500_18 Phases=1 Bus1=S17.3.4 Bus2=S18.3.4 Length= 183.82 units=ft Spacing=1PH_1_NNYY wires=[336_ACSR 336_ACSR] faultrate=4.8606136e-05 repair=3.7
New line.L5500_19 Phases=1 Bus1=S18.3.4 Bus2=S19.3.4 Length= 225.04 units=ft Spacing=1PH_1_NNYY wires=[336_ACSR 336_ACSR] faultrate=4.8606136e-05 repair=3.7
New line.L5500_20 Phases=1 Bus1=S19.3.4 Bus2=S20.3.4 Length= 261.79 units=ft Spacing=1PH_1_NNYY wires=[336_ACSR 336_ACSR] faultrate=4.8606136e-05 repair=3.7


New line.L5500_20_1 Phases=1 Bus1=S20.3.4 Bus2=S0201.3.4 Length= 280.00 units=ft Spacing=1PH_1_NNYY wires=[336_ACSR 336_ACSR] faultrate=4.8606136e-05 repair=3.7
New line.L5500_21 Phases=1 Bus1=S20.3.4 Bus2=S21.3.4 Length= 320.25 units=ft Spacing=1PH_1_NNYY wires=[336_ACSR 336_ACSR] faultrate=4.8606136e-05 repair=3.7
New line.L5500_21_1 Phases=1 Bus1=S21.3.4 Bus2=S0211.3.4 Length= 176.96 units=ft Spacing=1PH_1_NNYY wires=[336_ACSR 336_ACSR] faultrate=4.8606136e-05 repair=3.7
New line.L5500_22 Phases=1 Bus1=S21.3.4 Bus2=S22.3.4 Length= 318.26 units=ft Spacing=1PH_1_NNYY wires=[336_ACSR 336_ACSR] faultrate=4.8606136e-05 repair=3.7
New line.L5500_23 Phases=1 Bus1=S22.3.4 Bus2=S23.3.4 Length= 136.79 units=ft Spacing=1PH_1_NNYY wires=[336_ACSR 336_ACSR] faultrate=4.8606136e-05 repair=3.7
New line.L5500_25 Phases=1 Bus1=S23.3.4 Bus2=S25.3.4 Length= 456.39 units=ft Spacing=1PH_1_NNYY wires=[336_ACSR 336_ACSR] faultrate=4.8606136e-05 repair=3.7
New line.L5500_26 Phases=1 Bus1=S25.3.4 Bus2=S26.3.4 Length= 172.91 units=ft Spacing=1PH_1_NNYY wires=[336_ACSR 336_ACSR] faultrate=4.8606136e-05 repair=3.7
New line.L5500_27 Phases=1 Bus1=S26.3.4 Bus2=S27.3.4 Length= 223.36 units=ft Spacing=1PH_1_NNYY wires=[336_ACSR 336_ACSR] faultrate=4.8606136e-05 repair=3.7
New line.L5500_28 Phases=1 Bus1=S27.3.4 Bus2=S28.3.4 Length= 186.50 units=ft Spacing=1PH_1_NNYY wires=[336_ACSR 336_ACSR] faultrate=4.8606136e-05 repair=3.7
New line.L5500_28_5 Phases=1 Bus1=S28.3.4 Bus2=S285.3.4 Length= 144.69 units=ft Spacing=1PH_1_NNYY wires=[336_ACSR 336_ACSR] faultrate=4.8606136e-05 repair=3.7

New line.L5500_29 Phases=1 Bus1=S285.3.4 Bus2=S29.3.4 Length= 155.80 units=ft Spacing=1PH_1_NNYY wires=[336_ACSR 336_ACSR] faultrate=4.8606136e-05 repair=3.7
New line.L5500_29_1 Phases=1 Bus1=S29.3.4 Bus2=S0291.3.4 Length= 66.58 units=ft Spacing=1PH_1_NNYY wires=[336_ACSR 336_ACSR] faultrate=4.8606136e-05 repair=3.7
New line.L5500_30 Phases=1 Bus1=S29.3.4 Bus2=S30.3.4 Length= 272.73 units=ft Spacing=1PH_1_NNYY wires=[336_ACSR 336_ACSR] faultrate=4.8606136e-05 repair=3.7
New line.L5500_31 Phases=1 Bus1=S30.3.4 Bus2=S31.3.4 Length= 265.53 units=ft Spacing=1PH_1_NNYY wires=[336_ACSR 336_ACSR] faultrate=4.8606136e-05 repair=3.7
New line.L5500_32 Phases=1 Bus1=S31.3.4 Bus2=S32.3.4 Length= 271.95 units=ft Spacing=1PH_1_NNYY wires=[336_ACSR 336_ACSR] faultrate=4.8606136e-05 repair=3.7
New line.L5500_33 Phases=1 Bus1=S32.3.4 Bus2=S33.3.4 Length= 264.42 units=ft Spacing=1PH_1_NNYY wires=[336_ACSR 336_ACSR] faultrate=4.8606136e-05 repair=3.7
New line.L5500_34 Phases=1 Bus1=S33.3.4 Bus2=S34.3.4 Length= 242.75 units=ft Spacing=1PH_1_NNYY wires=[336_ACSR 336_ACSR] faultrate=4.8606136e-05 repair=3.7
New line.L5500_35 Phases=1 Bus1=S34.3.4 Bus2=S35.3.4 Length= 235.58 units=ft Spacing=1PH_1_NNYY wires=[336_ACSR 336_ACSR] faultrate=4.8606136e-05 repair=3.7
New line.L5500_36 Phases=1 Bus1=S35.3.4 Bus2=S36.3.4 Length= 234.40 units=ft Spacing=1PH_1_NNYY wires=[336_ACSR 336_ACSR] faultrate=4.8606136e-05 repair=3.7
New line.L5500_37 Phases=1 Bus1=S36.3.4 Bus2=S37.3.4 Length= 165.51 units=ft Spacing=1PH_1_NNYY wires=[336_ACSR 336_ACSR] faultrate=4.8606136e-05 repair=3.7
New line.L5500_37_1 Phases=1 Bus1=S37.3.4 Bus2=S0371.3.4 Length= 160.59 units=ft Spacing=1PH_1_NNYY wires=[4/0_ACSR 4/0_ACSR] faultrate=4.8606136e-05 repair=3.7
New line.L5500_37_2 Phases=1 Bus1=S0371.3.4 Bus2=S0372.3.4 Length= 388.34 units=ft Spacing=1PH_1_NNYY wires=[4/0_ACSR 4/0_ACSR] faultrate=4.8606136e-05 repair=3.7
New line.L5500_38 Phases=1 Bus1=S37.3.4 Bus2=S38.3.4 Length= 159.13 units=ft Spacing=1PH_1_NNYY wires=[336_ACSR 336_ACSR] faultrate=4.8606136e-05 repair=3.7
New line.L5500_39 Phases=1 Bus1=S38.3.4 Bus2=S39.3.4 Length= 187.24 units=ft Spacing=1PH_1_NNYY wires=[336_ACSR 336_ACSR] faultrate=4.8606136e-05 repair=3.7
New line.L5500_39_1 Phases=1 Bus1=S39.3.4 Bus2=S0391.3.4 Length= 121.05 units=ft Spacing=1PH_1_NNYY wires=[336_ACSR 336_ACSR] faultrate=4.8606136e-05 repair=3.7

New line.L5500_40 Phases=1 Bus1=S39.3.4 Bus2=S40.3.4 Length= 172.53 units=ft Spacing=1PH_1_NNYY wires=[336_ACSR 336_ACSR] faultrate=4.8606136e-05 repair=3.7
New line.L5500_41 Phases=1 Bus1=S40.3.4 Bus2=S41.3.4 Length= 266.77 units=ft Spacing=1PH_1_NNYY wires=[336_ACSR 336_ACSR] faultrate=4.8606136e-05 repair=3.7
New line.L5500_42 Phases=1 Bus1=S41.3.4 Bus2=S42.3.4 Length= 196.27 units=ft Spacing=1PH_1_NNYY wires=[336_ACSR 336_ACSR] faultrate=4.8606136e-05 repair=3.7
New line.L5500_43 Phases=1 Bus1=S42.3.4 Bus2=S43.3.4 Length= 189.70 units=ft Spacing=1PH_1_NNYY wires=[336_ACSR 336_ACSR] faultrate=4.8606136e-05 repair=3.7
New line.L5500_44 Phases=1 Bus1=S43.3.4 Bus2=S44.3.4 Length= 332.44 units=ft Spacing=1PH_1_NNYY wires=[336_ACSR 336_ACSR] faultrate=4.8606136e-05 repair=3.7
New line.L5500_45 Phases=1 Bus1=S44.3.4 Bus2=S45.3.4 Length= 341.50 units=ft Spacing=1PH_1_NNYY wires=[336_ACSR 336_ACSR] faultrate=4.8606136e-05 repair=3.7
New line.L5500_46 Phases=1 Bus1=S45.3.4 Bus2=S46.3.4 Length= 330.52 units=ft Spacing=1PH_1_NNYY wires=[336_ACSR 336_ACSR] faultrate=4.8606136e-05 repair=3.7
New line.L5500_47 Phases=1 Bus1=S46.3.4 Bus2=S47.3.4 Length= 392.76 units=ft Spacing=1PH_1_NNYY wires=[336_ACSR 336_ACSR] faultrate=4.8606136e-05 repair=3.7
New line.L5500_48 Phases=1 Bus1=S47.3.4 Bus2=S48.3.4 Length= 387.62 units=ft Spacing=1PH_1_NNYY wires=[336_ACSR 336_ACSR] faultrate=4.8606136e-05 repair=3.7


New line.L5510_1 Phases=1 Bus1=S6.3.4 Bus2=SS1.3.4 Length= 84.40 units=ft Spacing=1PH_1_NNYY wires=[336_ACSR 336_ACSR] faultrate=4.8606136e-05 repair=3.7
New line.L5510_2 Phases=1 Bus1=SS1.3.4 Bus2=SS2.3.4 Length= 94.89 units=ft Spacing=1PH_1_NNYY wires=[336_ACSR 336_ACSR] faultrate=4.8606136e-05 repair=3.7
New line.L5510_3 Phases=1 Bus1=SS2.3.4 Bus2=SS3.3.4 Length= 171.49 units=ft Spacing=1PH_1_NNYY wires=[336_ACSR 336_ACSR] faultrate=4.8606136e-05 repair=3.7
New line.L5510_3_1 Phases=1 Bus1=SS3.3.4 Bus2=SS031.3.4 Length= 133.16 units=ft Spacing=1PH_1_NNYY wires=[336_ACSR 336_ACSR] faultrate=4.8606136e-05 repair=3.7
...