ColorMap_Imbalance/ColorMap_Imbalance/LoadXFMR3.dss

!*************************************** Single pH Load Transformer On Buses **********************************************************************************************************



!*********************************************  L5000 SINGLE Ph XFMRS *****************************************************************************************************************


New Transformer.XFM4 phases=1 wdg=1 bus=N4.2 kV=4.8 kVA=10 wdg=2 bus=N4T.2 kV=0.120 xhl=0.1 %loadloss=.01 %noloadloss=.0025
New Transformer.XFM4_1 phases=1 wdg=1 bus=N041.1 kV=4.8 kVA=25 wdg=2 bus=N041T.1 kV=0.120 xhl=0.1 %loadloss=.01 %noloadloss=.0025
New Transformer.XFM4_2 phases=1 wdg=1 bus=N042.1 kV=4.8 kVA=75 wdg=2 bus=N042T.1 kV=0.120 xhl=0.1 %loadloss=.01 %noloadloss=.0025

New Transformer.XFM6A phases=3 wdg=1 bus=N6.1 kV=4.8 kVA=2500 wdg=2 bus=N6TA.1 kV=0.120 xhl=0.1 %loadloss=.01 %noloadloss=.0025
New Transformer.XFM6B phases=3 wdg=1 bus=N6.2 kV=4.8 kVA=2500 wdg=2 bus=N6TB.2 kV=0.120 xhl=0.1 %loadloss=.01 %noloadloss=.0025
New Transformer.XFM6C phases=3 wdg=1 bus=N6.3 kV=4.8 kVA=2500 wdg=2 bus=N6TC.3 kV=0.120 xhl=0.1 %loadloss=.01 %noloadloss=.0025

New Transformer.XFM8 phases=1 wdg=1 bus=N8.2 kV=4.8 kVA=50 wdg=2 bus=N8T.2 kV=0.120 xhl=0.1 %loadloss=.01 %noloadloss=.0025
New Transformer.XFM9 phases=1 wdg=1 bus=N9.3 kV=4.8 kVA=50 wdg=2 bus=N9T.3 kV=0.120 xhl=0.1 %loadloss=.01 %noloadloss=.0025

New Transformer.XFM9_2 phases=1 wdg=1 bus=N092.3 kV=4.8 kVA=50 wdg=2 bus=N092T.3 kV=0.120 xhl=0.1 %loadloss=.01 %noloadloss=.0025
New Transformer.XFM9_3 phases=1 wdg=1 bus=N093.3 kV=4.8 kVA=50 wdg=2 bus=N093T.3 kV=0.120 xhl=0.1 %loadloss=.01 %noloadloss=.0025
New Transformer.XFM10 phases=1 wdg=1 bus=N10.3 kV=4.8 kVA=50 wdg=2 bus=N10T.3 kV=0.120 xhl=0.1 %loadloss=.01 %noloadloss=.0025
New Transformer.XFM11 phases=1 wdg=1 bus=N11.3 kV=4.8 kVA=50 wdg=2 bus=N11T.3 kV=0.120 xhl=0.1 %loadloss=.01 %noloadloss=.0025

New Transformer.XFM12 phases=1 wdg=1 bus=N12.3 kV=4.8 kVA=50 wdg=2 bus=N12T.3 kV=0.120 xhl=0.1 %loadloss=.01 %noloadloss=.0025
New Transformer.XFM13 phases=1 wdg=1 bus=N13.3 kV=4.8 kVA=50 wdg=2 bus=N13T.3 kV=0.120 xhl=0.1 %loadloss=.01 %noloadloss=.0025
New Transformer.XFM14 phases=1 wdg=1 bus=N14.3 kV=4.8 kVA=50 wdg=2 bus=N14T.3 kV=0.120 xhl=0.1 %loadloss=.01 %noloadloss=.0025
New Transformer.XFM15 phases=1 wdg=1 bus=N15.3 kV=4.8 kVA=75 wdg=2 bus=N15T.3 kV=0.120 xhl=0.1 %loadloss=.01 %noloadloss=.0025
New Transformer.XFM16 phases=1 wdg=1 bus=N16.3 kV=4.8 kVA=75 wdg=2 bus=N16T.3 kV=0.120 xhl=0.1 %loadloss=.01 %noloadloss=.0025
New Transformer.XFM17 phases=1 wdg=1 bus=N17.3 kV=4.8 kVA=75 wdg=2 bus=N17T.3 kV=0.120 xhl=0.1 %loadloss=.01 %noloadloss=.0025
New Transformer.XFM18 phases=1 wdg=1 bus=N18.3 kV=4.8 kVA=75 wdg=2 bus=N18T.3 kV=0.120 xhl=0.1 %loadloss=.01 %noloadloss=.0025
New Transformer.XFM19 phases=1 wdg=1 bus=N19.3 kV=4.8 kVA=75 wdg=2 bus=N19T.3 kV=0.120 xhl=0.1 %loadloss=.01 %noloadloss=.0025
New Transformer.XFM20 phases=1 wdg=1 bus=N20.3 kV=4.8 kVA=75 wdg=2 bus=N20T.3 kV=0.120 xhl=0.1 %loadloss=.01 %noloadloss=.0025

New Transformer.XFM21 phases=1 wdg=1 bus=N21.3 kV=4.8 kVA=75 wdg=2 bus=N21T.3 kV=0.120 xhl=0.1 %loadloss=.01 %noloadloss=.0025
New Transformer.XFM21_2 phases=1 wdg=1 bus=N0212.1 kV=4.8 kVA=100 wdg=2 bus=N0212T.1 kV=0.120 xhl=0.1 %loadloss=.01 %noloadloss=.0025

New Transformer.XFM22 phases=1 wdg=1 bus=N22.3 kV=4.8 kVA=75 wdg=2 bus=N22T.3 kV=0.120 xhl=0.1 %loadloss=.01 %noloadloss=.0025
New Transformer.XFM23 phases=1 wdg=1 bus=N23.3 kV=4.8 kVA=75 wdg=2 bus=N23T.3 kV=0.120 xhl=0.1 %loadloss=.01 %noloadloss=.0025
New Transformer.XFM24 phases=1 wdg=1 bus=N24.3 kV=4.8 kVA=75 wdg=2 bus=N24T.3 kV=0.120 xhl=0.1 %loadloss=.01 %noloadloss=.0025

New Transformer.XFM25 phases=1 wdg=1 bus=N25.1 kV=4.8 kVA=75 wdg=2 bus=N25T.1 kV=0.120 xhl=0.1 %loadloss=.01 %noloadloss=.0025
New Transformer.XFM26 phases=1 wdg=1 bus=N26.1 kV=4.8 kVA=75 wdg=2 bus=N26T.1 kV=0.120 xhl=0.1 %loadloss=.01 %noloadloss=.0025
New Transformer.XFM27 phases=1 wdg=1 bus=N27.1 kV=4.8 kVA=50 wdg=2 bus=N27T.1 kV=0.120 xhl=0.1 %loadloss=.01 %noloadloss=.0025
New Transformer.XFM28 phases=1 wdg=1 bus=N28.1 kV=4.8 kVA=50 wdg=2 bus=N28T.1 kV=0.120 xhl=0.1 %loadloss=.01 %noloadloss=.0025

New Transformer.XFM29 phases=1 wdg=1 bus=N29.1 kV=4.8 kVA=50 wdg=2 bus=N29T.1 kV=0.120 xhl=0.1 %loadloss=.01 %noloadloss=.0025
New Transformer.XFM30A phases=1 wdg=1 bus=N30.1 kV=4.8 kVA=10 wdg=2 bus=N30TA.1 kV=0.120 xhl=0.1 %loadloss=.01 %noloadloss=.0025
New Transformer.XFM30B phases=1 wdg=1 bus=N30.2 kV=4.8 kVA=25 wdg=2 bus=N30TB.2 kV=0.120 xhl=0.1 %loadloss=.01 %noloadloss=.0025

New Transformer.XFM30_1A phases=1 wdg=1 bus=N0301.1 kV=4.8 kVA=75 wdg=2 bus=N0301TA.1. kV=0.120 xhl=0.1 %loadloss=.01 %noloadloss=.0025
New Transformer.XFM30_1B phases=1 wdg=1 bus=N0301.2 kV=4.8 kVA=75 wdg=2 bus=N0301TB.2 kV=0.120 xhl=0.1 %loadloss=.01 %noloadloss=.0025
New Transformer.XFM30_1C phases=1 wdg=1 bus=N0301.3 kV=4.8 kVA=75 wdg=2 bus=N0301TC.3 kV=0.120 xhl=0.1 %loadloss=.01 %noloadloss=.0025

New Transformer.XFM30_2A phases=1 wdg=1 bus=N0302.1 kV=4.8 kVA=10 wdg=2 bus=N0302TA.1 kV=0.120 xhl=0.1 %loadloss=.01 %noloadloss=.0025
New Transformer.XFM30_2B phases=1 wdg=1 bus=N0302.2 kV=4.8 kVA=10 wdg=2 bus=N0302TB.2 kV=0.120 xhl=0.1 %loadloss=.01 %noloadloss=.0025
New Transformer.XFM32 phases=1 wdg=1 bus=N32.1 kV=4.8 kVA=50 wdg=2 bus=N32T.1 kV=0.120 xhl=0.1 %loadloss=.01 %noloadloss=.0025
New Transformer.XFM33 phases=1 wdg=1 bus=N33.1 kV=4.8 kVA=50 wdg=2 bus=N33T.1 kV=0.120 xhl=0.1 %loadloss=.01 %noloadloss=.0025
New Transformer.XFM34 phases=1 wdg=1 bus=N34.1 kV=4.8 kVA=50 wdg=2 bus=N34T.1 kV=0.120 xhl=0.1 %loadloss=.01 %noloadloss=.0025
New Transformer.XFM35 phases=1 wdg=1 bus=N35.1 kV=4.8 kVA=50 wdg=2 bus=N35T.1 kV=0.120 xhl=0.1 %loadloss=.01 %noloadloss=.0025
New Transformer.XFM37 phases=1 wdg=1 bus=N37.1 kV=4.8 kVA=50 wdg=2 bus=N37T.1 kV=0.120 xhl=0.1 %loadloss=.01 %noloadloss=.0025
New Transformer.XFM39 phases=1 wdg=1 bus=N39.3 kV=4.8 kVA=50 wdg=2 bus=N39T.3 kV=0.120 xhl=0.1 %loadloss=.01 %noloadloss=.0025

New Transformer.XFM40 phases=1 wdg=1 bus=N40.3 kV=4.8 kVA=50 wdg=2 bus=N40T.3 kV=0.120 xhl=0.1 %loadloss=.01 %noloadloss=.0025
New Transformer.XFM41 phases=1 wdg=1 bus=N41.3 kV=4.8 kVA=50 wdg=2 bus=N41T.3 kV=0.120 xhl=0.1 %loadloss=.01 %noloadloss=.0025
New Transformer.XFM42 phases=1 wdg=1 bus=N42.3 kV=4.8 kVA=50 wdg=2 bus=N42T.3 kV=0.120 xhl=0.1 %loadloss=.01 %noloadloss=.0025
New Transformer.XFM43 phases=1 wdg=1 bus=N43.3 kV=4.8 kVA=50 wdg=2 bus=N43T.3 kV=0.120 xhl=0.1 %loadloss=.01 %noloadloss=.0025
New Transformer.XFM44 phases=1 wdg=1 bus=N44.3 kV=4.8 kVA=25 wdg=2 bus=N44T.3 kV=0.120 xhl=0.1 %loadloss=.01 %noloadloss=.0025
New Transformer.XFM45A phases=1 wdg=1 bus=N45.1 kV=4.8 kVA=75 wdg=2 bus=N45TA.1 kV=0.120 xhl=0.1 %loadloss=.01 %noloadloss=.0025
New Transformer.XFM45B phases=1 wdg=1 bus=N45.2 kV=4.8 kVA=75 wdg=2 bus=N45TB.2 kV=0.120 xhl=0.1 %loadloss=.01 %noloadloss=.0025
New Transformer.XFM45C phases=1 wdg=1 bus=N45.3 kV=4.8 kVA=75 wdg=2 bus=N45TC.3 kV=0.120 xhl=0.1 %loadloss=.01 %noloadloss=.0025
New Transformer.XFM46 phases=1 wdg=1 bus=N46.2 kV=4.8 kVA=75 wdg=2 bus=N46T.2 kV=0.120 xhl=0.1 %loadloss=.01 %noloadloss=.0025
New Transformer.XFM48A phases=1 wdg=1 bus=N48.1 kV=4.8 kVA=100 wdg=2 bus=N48TA.1 kV=0.120 xhl=0.1 %loadloss=.01 %noloadloss=.0025
New Transformer.XFM48B phases=1 wdg=1 bus=N48.2 kV=4.8 kVA=100 wdg=2 bus=N48TB.2 kV=0.120 xhl=0.1 %loadloss=.01 %noloadloss=.0025
New Transformer.XFM48C phases=1 wdg=1 bus=N48.3 kV=4.8 kVA=100 wdg=2 bus=N48TC.3 kV=0.120 xhl=0.1 %loadloss=.01 %noloadloss=.0025
New Transformer.XFM49 phases=1 wdg=1 bus=N49.2 kV=4.8 kVA=50 wdg=2 bus=N49T.2 kV=0.120 xhl=0.1 %loadloss=.01 %noloadloss=.0025
New Transformer.XFM50 phases=1 wdg=1 bus=N50.2 kV=4.8 kVA=75 wdg=2 bus=N50T.2 kV=0.120 xhl=0.1 %loadloss=.01 %noloadloss=.0025
New Transformer.XFM51 phases=1 wdg=1 bus=N51.1 kV=4.8 kVA=50 wdg=2 bus=N51T.1 kV=0.120 xhl=0.1 %loadloss=.01 %noloadloss=.0025
New Transformer.XFM51_1A phases=1 wdg=1 bus=N0511.1 kV=4.8 kVA=75 wdg=2 bus=N0511TA.1 kV=0.120 xhl=0.1 %loadloss=.01 %noloadloss=.0025
New Transformer.XFM51_1C phases=1 wdg=1 bus=N0511.3 kV=4.8 kVA=50 wdg=2 bus=N0511TC.3 kV=0.120 xhl=0.1 %loadloss=.01 %noloadloss=.0025
New Transformer.XFM52 phases=1 wdg=1 bus=N52.1 kV=4.8 kVA=25 wdg=2 bus=N52T.1 kV=0.120 xhl=0.1 %loadloss=.01 %noloadloss=.0025
New Transformer.XFM53 phases=1 wdg=1 bus=N53.1 kV=4.8 kVA=75 wdg=2 bus=N53T.1 kV=0.120 xhl=0.1 %loadloss=.01 %noloadloss=.0025
New Transformer.XFM54 phases=1 wdg=1 bus=N54.1 kV=4.8 kVA=75 wdg=2 bus=N54T.1 kV=0.120 xhl=0.1 %loadloss=.01 %noloadloss=.0025


New Transformer.XFM56 phases=1 wdg=1 bus=N56.1 kV=4.8 kVA=75 wdg=2 bus=N56T.1 kV=0.120 xhl=0.1 %loadloss=.01 %noloadloss=.0025
New Transformer.XFM57 phases=1 wdg=1 bus=N57.1 kV=4.8 kVA=75 wdg=2 bus=N57T.1 kV=0.120 xhl=0.1 %loadloss=.01 %noloadloss=.0025
New Transformer.XFM58 phases=1 wdg=1 bus=N58.1 kV=4.8 kVA=75 wdg=2 bus=N58T.1 kV=0.120 xhl=0.1 %loadloss=.01 %noloadloss=.0025
New Transformer.XFM59 phases=1 wdg=1 bus=N59.1 kV=4.8 kVA=75 wdg=2 bus=N59T.1 kV=0.120 xhl=0.1 %loadloss=.01 %noloadloss=.0025
New Transformer.XFM60 phases=1 wdg=1 bus=N60.1 kV=4.8 kVA=75 wdg=2 bus=N60T.1 kV=0.120 xhl=0.1 %loadloss=.01 %noloadloss=.0025
New Transformer.XFM61 phases=1 wdg=1 bus=N61.1 kV=4.8 kVA=75 wdg=2 bus=N61T.1 kV=0.120 xhl=0.1 %loadloss=.01 %noloadloss=.0025
New Transformer.XFM64 phases=1 wdg=1 bus=N64.1 kV=4.8 kVA=75 wdg=2 bus=N64T.1 kV=0.120 xhl=0.1 %loadloss=.01 %noloadloss=.0025
New Transformer.XFM65 phases=1 wdg=1 bus=N65.1 kV=4.8 kVA=75 wdg=2 bus=N65T.1 kV=0.120 xhl=0.1 %loadloss=.01 %noloadloss=.0025
New Transformer.XFM66 phases=1 wdg=1 bus=N66.1 kV=4.8 kVA=50 wdg=2 bus=N66T.1 kV=0.120 xhl=0.1 %loadloss=.01 %noloadloss=.0025

New Transformer.XFM67_5_1A phases=1 wdg=1 bus=N06751.1 kV=4.8 kVA=37.5 wdg=2 bus=N06751TA.1 kV=0.120 xhl=0.1 %loadloss=.01 %noloadloss=.0025
New Transformer.XFM67_5_1C phases=1 wdg=1 bus=N06751.3 kV=4.8 kVA=37.5 wdg=2 bus=N06751TC.3 kV=0.120 xhl=0.1 %loadloss=.01 %noloadloss=.0025
New Transformer.XFM67_5_1B phases=1 wdg=1 bus=N06751.2 kV=4.8 kVA=50 wdg=2 bus=N06751TB.2 kV=0.120 xhl=0.1 %loadloss=.01 %noloadloss=.0025

New Transformer.XFM68_1A phases=1 wdg=1 bus=N0681.1 kV=4.8 kVA=50 wdg=2 bus=N0681TA.1 kV=0.120 xhl=0.1 %loadloss=.01 %noloadloss=.0025
New Transformer.XFM68_1B phases=1 wdg=1 bus=N0681.2 kV=4.8 kVA=50 wdg=2 bus=N0681TB.2 kV=0.120 xhl=0.1 %loadloss=.01 %noloadloss=.0025
New Transformer.XFM68_1C phases=1 wdg=1 bus=N0681.3 kV=4.8 kVA=50 wdg=2 bus=N0681TC.3 kV=0.120 xhl=0.1 %loadloss=.01 %noloadloss=.0025

New Transformer.XFM68_1_1A phases=1 wdg=1 bus=N06811.1 kV=4.8 kVA=50 wdg=2 bus=N06811TA.1 kV=0.120 xhl=0.1 %loadloss=.01 %noloadloss=.0025
New Transformer.XFM68_1_1B phases=1 wdg=1 bus=N06811.2 kV=4.8 kVA=50 wdg=2 bus=N06811TB.2 kV=0.120 xhl=0.1 %loadloss=.01 %noloadloss=.0025
New Transformer.XFM68_1_1C phases=1 wdg=1 bus=N06811.3 kV=4.8 kVA=50 wdg=2 bus=N06811TC.3 kV=0.120 xhl=0.1 %loadloss=.01 %noloadloss=.0025

New Transformer.XFM68_2 phases=1 wdg=1 bus=N0682.3 kV=4.8 kVA=50 wdg=2 bus=N0682T.3 kV=0.120 xhl=0.1 %loadloss=.01 %noloadloss=.0025

New Transformer.XFM68_3_1A phases=1 wdg=1 bus=N06831.1 kV=4.8 kVA=50 wdg=2 bus=N06831TA.1 kV=0.120 xhl=0.1 %loadloss=.01 %noloadloss=.0025
New Transformer.XFM68_3_1B phases=1 wdg=1 bus=N06831.2 kV=4.8 kVA=50 wdg=2 bus=N06831TB.2 kV=0.120 xhl=0.1 %loadloss=.01 %noloadloss=.0025
New Transformer.XFM68_3_1C phases=1 wdg=1 bus=N06831.3 kV=4.8 kVA=50 wdg=2 bus=N06831TC.3 kV=0.120 xhl=0.1 %loadloss=.01 %noloadloss=.0025

New Transformer.XFM68_3_2A phases=1 wdg=1 bus=N06832.1 kV=4.8 kVA=15 wdg=2 bus=N06832TA.1 kV=0.120 xhl=0.1 %loadloss=.01 %noloadloss=.0025
New Transformer.XFM68_3_2C phases=1 wdg=1 bus=N06832.3 kV=4.8 kVA=10 wdg=2 bus=N06832TC.3 kV=0.120 xhl=0.1 %loadloss=.01 %noloadloss=.0025

New Transformer.XFM68_3_3A phases=1 wdg=1 bus=N06833.1 kV=4.8 kVA=50 wdg=2 bus=N06833TA.1 kV=0.120 xhl=0.1 %loadloss=.01 %noloadloss=.0025
New Transformer.XFM68_3_3B phases=1 wdg=1 bus=N06833.2 kV=4.8 kVA=50 wdg=2 bus=N06833TB.2 kV=0.120 xhl=0.1 %loadloss=.01 %noloadloss=.0025
New Transformer.XFM68_3_3C phases=1 wdg=1 bus=N06833.3 kV=4.8 kVA=50 wdg=2 bus=N06833TC.3 kV=0.120 xhl=0.1 %loadloss=.01 %noloadloss=.0025

New Transformer.XFM69 phases=1 wdg=1 bus=N69.1 kV=4.8 kVA=50 wdg=2 bus=N69T.1 kV=0.120 xhl=0.1 %loadloss=.01 %noloadloss=.0025

New Transformer.XFM69_1A phases=1 wdg=1 bus=N0691.1 kV=4.8 kVA=50 wdg=2 bus=N0691TA.1 kV=0.120 xhl=0.1 %loadloss=.01 %noloadloss=.0025
New Transformer.XFM69_1B phases=1 wdg=1 bus=N0691.2 kV=4.8 kVA=50 wdg=2 bus=N0691TB.2 kV=0.120 xhl=0.1 %loadloss=.01 %noloadloss=.0025
New Transformer.XFM69_1C phases=1 wdg=1 bus=N0691.3 kV=4.8 kVA=50 wdg=2 bus=N0691TC.3 kV=0.120 xhl=0.1 %loadloss=.01 %noloadloss=.0025
New Transformer.XFM70 phases=1 wdg=1 bus=N70.1 kV=4.8 kVA=50 wdg=2 bus=N70T.1 kV=0.120 xhl=0.1 %loadloss=.01 %noloadloss=.0025
New Transformer.XFM71A phases=1 wdg=1 bus=N71.1 kV=4.8 kVA=50 wdg=2 bus=N71TA.1 kV=0.120 xhl=0.1 %loadloss=.01 %noloadloss=.0025
New Transformer.XFM71B phases=1 wdg=1 bus=N71.2 kV=4.8 kVA=10 wdg=2 bus=N71TB.2 kV=0.120 xhl=0.1 %loadloss=.01 %noloadloss=.0025
New Transformer.XFM71C phases=1 wdg=1 bus=N71.3 kV=4.8 kVA=10 wdg=2 bus=N71TC.3 kV=0.120 xhl=0.1 %loadloss=.01 %noloadloss=.0025

New Transformer.XFM72 phases=1 wdg=1 bus=N72.1 kV=4.8 kVA=50 wdg=2 bus=N72T.1 kV=0.120 xhl=0.1 %loadloss=.01 %noloadloss=.0025
New Transformer.XFM73 phases=1 wdg=1 bus=N73.1 kV=4.8 kVA=50 wdg=2 bus=N73T.1 kV=0.120 xhl=0.1 %loadloss=.01 %noloadloss=.0025

New Transformer.XFM74_1A phases=1 wdg=1 bus=N0741.1 kV=4.8 kVA=75 wdg=2 bus=N0741TA.1 kV=0.120 xhl=0.1 %loadloss=.01 %noloadloss=.0025
New Transformer.XFM74_1B phases=1 wdg=1 bus=N0741.2 kV=4.8 kVA=75 wdg=2 bus=N0741TB.2 kV=0.120 xhl=0.1 %loadloss=.01 %noloadloss=.0025
New Transformer.XFM74_1C phases=1 wdg=1 bus=N0741.3 kV=4.8 kVA=75 wdg=2 bus=N0741TC.3 kV=0.120 xhl=0.1 %loadloss=.01 %noloadloss=.0025

New Transformer.XFM75 phases=1 wdg=1 bus=N75.3 kV=4.8 kVA=50 wdg=2 bus=N75T.3 kV=0.120 xhl=0.1 %loadloss=.01 %noloadloss=.0025
New Transformer.XFM76 phases=1 wdg=1 bus=N76.3 kV=4.8 kVA=50 wdg=2 bus=N76T.3 kV=0.120 xhl=0.1 %loadloss=.01 %noloadloss=.0025

New Transformer.XFM76_1A phases=1 wdg=1 bus=N0761.1 kV=4.8 kVA=37.5 wdg=2 bus=N0761TA.1 kV=0.120 xhl=0.1 %loadloss=.01 %noloadloss=.0025
New Transformer.XFM76_1B phases=1 wdg=1 bus=N0761.2 kV=4.8 kVA=37.5 wdg=2 bus=N0761TB.2 kV=0.120 xhl=0.1 %loadloss=.01 %noloadloss=.0025
New Transformer.XFM76_1C phases=1 wdg=1 bus=N0761.3 kV=4.8 kVA=37.5 wdg=2 bus=N0761TC.3 kV=0.120 xhl=0.1 %loadloss=.01 %noloadloss=.0025

New Transformer.XFM77 phases=1 wdg=1 bus=N77.3 kV=4.8 kVA=50 wdg=2 bus=N77T.3 kV=0.120 xhl=0.1 %loadloss=.01 %noloadloss=.0025
New Transformer.XFM79 phases=1 wdg=1 bus=N79.3 kV=4.8 kVA=50 wdg=2 bus=N79T.3 kV=0.120 xhl=0.1 %loadloss=.01 %noloadloss=.0025

New Transformer.XFM79_1A phases=1 wdg=1 bus=N0791.1 kV=4.8 kVA=100 wdg=2 bus=N0791TA.1 kV=0.120 xhl=0.1 %loadloss=.01 %noloadloss=.0025
New Transformer.XFM79_1B phases=1 wdg=1 bus=N0791.2 kV=4.8 kVA=100 wdg=2 bus=N0791TB.2 kV=0.120 xhl=0.1 %loadloss=.01 %noloadloss=.0025
New Transformer.XFM79_1C phases=1 wdg=1 bus=N0791.3 kV=4.8 kVA=100 wdg=2 bus=N0791TC.3 kV=0.120 xhl=0.1 %loadloss=.01 %noloadloss=.0025


New Transformer.XFM79_2A phases=1 wdg=1 bus=N0792.1 kV=4.8 kVA=10 wdg=2 bus=N0792TA.1 kV=0.120 xhl=0.1 %loadloss=.01 %noloadloss=.0025
New Transformer.XFM79_2B phases=1 wdg=1 bus=N0792.2 kV=4.8 kVA=10 wdg=2 bus=N0792TB.2 kV=0.120 xhl=0.1 %loadloss=.01 %noloadloss=.0025
New Transformer.XFM79_2C phases=1 wdg=1 bus=N0792.3 kV=4.8 kVA=50 wdg=2 bus=N0792TC.3 kV=0.120 xhl=0.1 %loadloss=.01 %noloadloss=.0025
New Transformer.XFM80 phases=1 wdg=1 bus=N80.3 kV=4.8 kVA=50 wdg=2 bus=N80T.3 kV=0.120 xhl=0.1 %loadloss=.01 %noloadloss=.0025
New Transformer.XFM81 phases=1 wdg=1 bus=N81.3 kV=4.8 kVA=50 wdg=2 bus=N81T.3 kV=0.120 xhl=0.1 %loadloss=.01 %noloadloss=.0025


New Transformer.XFM83 phases=1 wdg=1 bus=N83.3 kV=4.8 kVA=50 wdg=2 bus=N83T.3 kV=0.120 xhl=0.1 %loadloss=.01 %noloadloss=.0025

New Transformer.XFM84A phases=1 wdg=1 bus=N84.1 kV=4.8 kVA=25 wdg=2 bus=N84TA.1 kV=0.120 xhl=0.1 %loadloss=.01 %noloadloss=.0025
New Transformer.XFM84B phases=1 wdg=1 bus=N84.2 kV=4.8 kVA=25 wdg=2 bus=N84TB.2 kV=0.120 xhl=0.1 %loadloss=.01 %noloadloss=.0025
New Transformer.XFM84C phases=1 wdg=1 bus=N84.3 kV=4.8 kVA=25 wdg=2 bus=N84TC.3 kV=0.120 xhl=0.1 %loadloss=.01 %noloadloss=.0025

New Transformer.XFM85 phases=1 wdg=1 bus=N85.1 kV=4.8 kVA=15 wdg=2 bus=N85T.1 kV=0.120 xhl=0.1 %loadloss=.01 %noloadloss=.0025
New Transformer.XFM86 phases=1 wdg=1 bus=N86.1 kV=4.8 kVA=50 wdg=2 bus=N86T.1 kV=0.120 xhl=0.1 %loadloss=.01 %noloadloss=.0025
New Transformer.XFM89 phases=1 wdg=1 bus=N89.2 kV=4.8 kVA=25 wdg=2 bus=N89T.2 kV=0.120 xhl=0.1 %loadloss=.01 %noloadloss=.0025
New Transformer.XFM90 phases=1 wdg=1 bus=N90.1 kV=4.8 kVA=10 wdg=2 bus=N90T.1 kV=0.120 xhl=0.1 %loadloss=.01 %noloadloss=.0025
New Transformer.XFM91_1 phases=1 wdg=1 bus=N0911.1 kV=4.8 kVA=10 wdg=2 bus=N0911T.1 kV=0.120 xhl=0.1 %loadloss=.01 %noloadloss=.0025
New Transformer.XFM91_3 phases=1 wdg=1 bus=N0913.3 kV=4.8 kVA=25 wdg=2 bus=N0913T.3 kV=0.120 xhl=0.1 %loadloss=.01 %noloadloss=.0025
New Transformer.XFM91_4 phases=1 wdg=1 bus=N0914.3 kV=4.8 kVA=15 wdg=2 bus=N0914T.3 kV=0.120 xhl=0.1 %loadloss=.01 %noloadloss=.0025
New Transformer.XFM92_1 phases=1 wdg=1 bus=N0921.3 kV=4.8 kVA=25 wdg=2 bus=N0921T.3 kV=0.120 xhl=0.1 %loadloss=.01 %noloadloss=.0025
New Transformer.XFM94 phases=1 wdg=1 bus=N94.1 kV=4.8 kVA=25 wdg=2 bus=N94T.1 kV=0.120 xhl=0.1 %loadloss=.01 %noloadloss=.0025

New Transformer.XFM94_1A phases=1 wdg=1 bus=N0941.1 kV=4.8 kVA=10 wdg=2 bus=N0941TA.1 kV=0.120 xhl=0.1 %loadloss=.01 %noloadloss=.0025
New Transformer.XFM94_1S phases=1 wdg=1 bus=N0941.1 kV=4.8 kVA=25 wdg=2 bus=N0941TS.1 kV=0.120 xhl=0.1 %loadloss=.01 %noloadloss=.0025

New Transformer.XFM99A phases=1 wdg=1 bus=N99.1 kV=4.8 kVA=37.5 wdg=2 bus=N99TA.1 kV=0.120 xhl=0.1 %loadloss=.01 %noloadloss=.0025
New Transformer.XFM99B phases=1 wdg=1 bus=N99.2 kV=4.8 kVA=37.5 wdg=2 bus=N99TB.2 kV=0.120 xhl=0.1 %loadloss=.01 %noloadloss=.0025
New Transformer.XFM99C phases=1 wdg=1 bus=N99.3 kV=4.8 kVA=37.5 wdg=2 bus=N99TC.3 kV=0.120 xhl=0.1 %loadloss=.01 %noloadloss=.0025

New Transformer.XFM100 phases=1 wdg=1 bus=N100.1 kV=4.8 kVA=75 wdg=2 bus=N100T.1 kV=0.120 xhl=0.1 %loadloss=.01 %noloadloss=.0025

New Transformer.XFM101_1 phases=1 wdg=1 bus=N01011.3 kV=4.8 kVA=15 wdg=2 bus=N01011T.3 kV=0.120 xhl=0.1 %loadloss=.01 %noloadloss=.0025
!New Transformer.XFM101_1S phases=1 wdg=1 bus=N01011.3 kV=4.8 kVA=50 wdg=2 bus=N01011TS.3 kV=0.120 xhl=0.1 %loadloss=.01 %noloadloss=.0025

New Transformer.XFM101_2 phases=1 wdg=1 bus=N01012.3 kV=4.8 kVA=37.5 wdg=2 bus=N01012T.3 kV=0.120 xhl=0.1 %loadloss=.01 %noloadloss=.0025
New Transformer.XFM102 phases=1 wdg=1 bus=N102.3 kV=4.8 kVA=15 wdg=2 bus=N102T.3 kV=0.120 xhl=0.1 %loadloss=.01 %noloadloss=.0025
New Transformer.XFM104 phases=1 wdg=1 bus=N104.2 kV=4.8 kVA=5 wdg=2 bus=N104T.2 kV=0.120 xhl=0.1 %loadloss=.01 %noloadloss=.0025
New Transformer.XFM107 phases=1 wdg=1 bus=N107.2 kV=4.8 kVA=25 wdg=2 bus=N107T.2 kV=0.120 xhl=0.1 %loadloss=.01 %noloadloss=.0025
New Transformer.XFM111 phases=1 wdg=1 bus=N111.2 kV=4.8 kVA=25 wdg=2 bus=N111T.2 kV=0.120 xhl=0.1 %loadloss=.01 %noloadloss=.0025
New Transformer.XFM112 phases=1 wdg=1 bus=N112.2 kV=4.8 kVA=25 wdg=2 bus=N112T.2 kV=0.120 xhl=0.1 %loadloss=.01 %noloadloss=.0025
New Transformer.XFM113_1 phases=1 wdg=1 bus=N01131.2 kV=4.8 kVA=15 wdg=2 bus=N01131T.2 kV=0.120 xhl=0.1 %loadloss=.01 %noloadloss=.0025
New Transformer.XFM114_1 phases=1 wdg=1 bus=N01141.2 kV=4.8 kVA=15 wdg=2 bus=N01141T.2 kV=0.120 xhl=0.1 %loadloss=.01 %noloadloss=.0025
New Transformer.XFM115 phases=1 wdg=1 bus=N115.2 kV=4.8 kVA=15 wdg=2 bus=N115T.2 kV=0.120 xhl=0.1 %loadloss=.01 %noloadloss=.0025
New Transformer.XFM118 phases=1 wdg=1 bus=N118.2 kV=4.8 kVA=15 wdg=2 bus=N118T.2 kV=0.120 xhl=0.1 %loadloss=.01 %noloadloss=.0025
New Transformer.XFM120_3 phases=1 wdg=1 bus=N01203.2 kV=4.8 kVA=37.5 wdg=2 bus=N01203T.2 kV=0.120 xhl=0.1 %loadloss=.01 %noloadloss=.0025



New Transformer.XFM123 phases=1 wdg=1 bus=N123.2 kV=4.8 kVA=10 wdg=2 bus=N123T.2 kV=0.120 xhl=0.1 %loadloss=.01 %noloadloss=.0025
New Transformer.XFM124_1 phases=1 wdg=1 bus=N01241.2 kV=4.8 kVA=25 wdg=2 bus=N01241T.2 kV=0.120 xhl=0.1 %loadloss=.01 %noloadloss=.0025
New Transformer.XFM128 phases=1 wdg=1 bus=N128.2 kV=4.8 kVA=10 wdg=2 bus=N128T.2 kV=0.120 xhl=0.1 %loadloss=.01 %noloadloss=.0025
New Transformer.XFM130 phases=1 wdg=1 bus=N130.2 kV=4.8 kVA=25 wdg=2 bus=N130T.2 kV=0.120 xhl=0.1 %loadloss=.01 %noloadloss=.0025
New Transformer.XFM130_1 phases=1 wdg=1 bus=N01301.2 kV=4.8 kVA=25 wdg=2 bus=N01301T.2 kV=0.120 xhl=0.1 %loadloss=.01 %noloadloss=.0025
New Transformer.XFM130_2 phases=1 wdg=1 bus=N01302.2 kV=4.8 kVA=50 wdg=2 bus=N01302T.2 kV=0.120 xhl=0.1 %loadloss=.01 %noloadloss=.0025
New Transformer.XFM133_1_1 phases=1 wdg=1 bus=N013311.2 kV=4.8 kVA=10 wdg=2 bus=N013311T.2 kV=0.120 xhl=0.1 %loadloss=.01 %noloadloss=.0025
New Transformer.XFM133_4 phases=1 wdg=1 bus=N01334.2 kV=4.8 kVA=15 wdg=2 bus=N01334T.2 kV=0.120 xhl=0.1 %loadloss=.01 %noloadloss=.0025


New Transformer.XFM138 phases=1 wdg=1 bus=N138.2 kV=4.8 kVA=15 wdg=2 bus=N138T.2 kV=0.120 xhl=0.1 %loadloss=.01 %noloadloss=.0025
New Transformer.XFM139 phases=1 wdg=1 bus=N139.2 kV=4.8 kVA=15 wdg=2 bus=N139T.2 kV=0.120 xhl=0.1 %loadloss=.01 %noloadloss=.0025
New Transformer.XFM141 phases=1 wdg=1 bus=N141.2 kV=4.8 kVA=25 wdg=2 bus=N141T.2 kV=0.120 xhl=0.1 %loadloss=.01 %noloadloss=.0025
New Transformer.XFM141_1 phases=1 wdg=1 bus=N01411.2 kV=4.8 kVA=15 wdg=2 bus=N01411T.2 kV=0.120 xhl=0.1 %loadloss=.01 %noloadloss=.0025
New Transformer.XFM141_2 phases=1 wdg=1 bus=N01412.2 kV=4.8 kVA=15 wdg=2 bus=N01412T.2 kV=0.120 xhl=0.1 %loadloss=.01 %noloadloss=.0025
New Transformer.XFM141_3 phases=1 wdg=1 bus=N01413.2 kV=4.8 kVA=50 wdg=2 bus=N01413T.2 kV=0.120 xhl=0.1 %loadloss=.01 %noloadloss=.0025
New Transformer.XFM142 phases=1 wdg=1 bus=N142.2 kV=4.8 kVA=50 wdg=2 bus=N142T.2 kV=0.120 xhl=0.1 %loadloss=.01 %noloadloss=.0025
New Transformer.XFM143 phases=1 wdg=1 bus=N143.2 kV=4.8 kVA=15 wdg=2 bus=N143T.2 kV=0.120 xhl=0.1 %loadloss=.01 %noloadloss=.0025
New Transformer.XFM144 phases=1 wdg=1 bus=N144.2 kV=4.8 kVA=25 wdg=2 bus=N144T.2 kV=0.120 xhl=0.1 %loadloss=.01 %noloadloss=.0025



!*********************************************  L5100 SINGLE Ph XFMRS *****************************************************************************************************************


...