ColorMap_Imbalance/ColorMap_Imbalance/Loaddata2_0_SingleShapes_duty.dss
! ****** LOAD DATA

!L5000****************** Feeder SINGLE PHASE LOAD DATA *******************************************

New Load.B144 Bus1=N144T.2.0 phases=1 duty=shapeB kV=0.12 kW=5.82 vminpu=0.9 vmaxpu=1.10 pf=1.0
New Load.B144_1 Bus1=N144T.2.0 phases=1 duty=shapeB kV=0.12 kW=0.46 vminpu=0.9 vmaxpu=1.10  
New Load.B143 Bus1=N143T.2.0 phases=1 duty=shapeB  kV=0.12 kW=6.27 vminpu=0.9 vmaxpu=1.10 
New Load.B143_1 Bus1=N143T.2.0 phases=1 duty=shapeB kV=0.12 kW=1.54 vminpu=0.9 vmaxpu=1.10 
New Load.B142 Bus1=N142T.2.0 phases=1 duty=shapeB  kV=0.12 kW=4.04 vminpu=0.9 vmaxpu=1.10 
New Load.B142_1 Bus1=N142T.2.0 phases=1 duty=shapeB kV=0.12 kW=6.89 vminpu=0.9 vmaxpu=1.10 
New Load.B142_2 Bus1=N142T.2.0 phases=1 duty=shapeB kV=0.12 kW=7.07 vminpu=0.9 vmaxpu=1.10 
New Load.B141_3 Bus1=N01413T.2.0 phases=1 duty=shapeB kV=0.12 kW=0.96 vminpu=0.9 vmaxpu=1.10 
New Load.B141_3_1 Bus1=N01413T.2.0 phases=1 duty=shapeB  kV=0.12 kW=1.26 vminpu=0.9 vmaxpu=1.10 
New Load.B141_3_2 Bus1=N01413T.2.0 phases=1 duty=shapeB  kV=0.12 kW=13.33 vminpu=0.9 vmaxpu=1.10 


New Load.B141_3_3 Bus1=N01413T.2.0 phases=1 duty=shapeB kV=0.12 kW=29.31 vminpu=0.9 vmaxpu=1.10 
New Load.B141_3_4 Bus1=N01413T.2.0 phases=1 duty=shapeB kV=0.12 kW=1.02 vminpu=0.9 vmaxpu=1.10 
New Load.B141_1 Bus1=N01411T.2.0 phases=1 duty=shapeB kV=0.12 kW=21.8 vminpu=0.9 vmaxpu=1.10 
New Load.B141_1_1 Bus1=N01411T.2.0 phases=1 duty=shapeB  kV=0.12 kW=2.02 vminpu=0.9 vmaxpu=1.10 
New Load.B141_1_2 Bus1=N01411T.2.0 phases=1 duty=shapeB kV=0.12 kW=5.96 vminpu=0.9 vmaxpu=1.10
New Load.B141_1_3 Bus1=N01411T.2.0 phases=1 duty=shapeB kV=0.12 kW=0 vminpu=0.9 vmaxpu=1.10
New Load.B141 Bus1=N141T.2.0 phases=1 duty=shapeB kV=0.122 kW=4.67 vminpu=0.9 vmaxpu=1.10 
New Load.B139 Bus1=N139T.2.0 phases=1 duty=shapeB kV=0.12 kW=12.37 vminpu=0.9 vmaxpu=1.10 
New Load.B138_1 Bus1=N138T.2.0 phases=1 duty=shapeB kV=0.12 kW=2.56 vminpu=0.9 vmaxpu=1.10 
New Load.B138_2 Bus1=N138T.2.0 phases=1 duty=shapeB kV=0.12 kW=7.52 vminpu=0.9 vmaxpu=1.10 

New Load.B133_4 Bus1=N01334T.2.0 phases=1 duty=shapeB kV=0.12 kW=5.82 vminpu=0.9 vmaxpu=1.10 
New Load.B133_1_1 Bus1=N013311T.2.0 phases=1 duty=shapeB kV=0.12 kW=5.7 vminpu=0.9 vmaxpu=1.10 
New Load.B130_2 Bus1=N01302T.2.0 phases=1 duty=shapeB kV=0.12 kW=22.99 vminpu=0.9 vmaxpu=1.10 
New Load.B130_1 Bus1=N01301T.2.0 phases=1 duty=shapeB kV=0.12 kW=4.48 vminpu=0.9 vmaxpu=1.10 
New Load.B130_1_1 Bus1=N01301T.2.0 phases=1 duty=shapeB kV=0.12 kW=4.32 vminpu=0.9 vmaxpu=1.10 
New Load.B130 Bus1=N130T.2.0 phases=1 duty=shapeB kV=0.12 kW=8.75 vminpu=0.9 vmaxpu=1.10 
New Load.B130_01 Bus1=N130T.2.0 phases=1 duty=shapeB kV=0.12 kW=5.69 vminpu=0.9 vmaxpu=1.10 
New Load.B128 Bus1=N128T.2.0 phases=1 duty=shapeB kV=0.12 kW=7.01 vminpu=0.9 vmaxpu=1.10 


New Load.B124_1 Bus1=N01241T.2.0 phases=1 duty=shapeB kV=0.12 kW=4.88 vminpu=0.9 vmaxpu=1.10 
New load.B124_1_1 Bus1=N01241T.2.0 phases=1 duty=shapeB kV=0.12 kW=5.64 vminpu=0.9 vmaxpu=1.10 
New Load.B123 Bus1=N123T.2.0 phases=1 duty=shapeB kV=0.12 kW=0.55 vminpu=0.9 vmaxpu=1.10 



New Load.B120_3 Bus1=N01203T.2.0 phases=1 duty=shapeB kV=0.12 kW=21.68 vminpu=0.9 vmaxpu=1.10 
New Load.B118 Bus1=N118T.2.0 phases=1 duty=shapeB kV=0.12 kW=0.15 vminpu=0.9 vmaxpu=1.10 
New Load.B118_1 Bus1=N118T.2.0 phases=1 duty=shapeB kV=0.12 kW=2.92 vminpu=0.9 vmaxpu=1.10 
New Load.B115 Bus1=N115T.2.0 phases=1 duty=shapeB kV=0.12 kW=10.03 vminpu=0.9 vmaxpu=1.10 
!New Load.B114_1_0 Bus1=N01141T.2.0 phases=1 duty=shapeB kV=0.12 kW=0 vminpu=0.9 vmaxpu=1.10 
New Load.B114_1_1 Bus1=N01141T.2.0 phases=1 duty=shapeB kV=0.12 kW=4.13 vminpu=0.9 vmaxpu=1.10 
New Load.B114_1_2 Bus1=N01141T.2.0 phases=1 duty=shapeB kV=0.12 kW=0 vminpu=0.9 vmaxpu=1.10 
New Load.B114_1_3 Bus1=N01141T.2.0 phases=1 duty=shapeB kV=0.12 kW=14.04 vminpu=0.9 vmaxpu=1.10 


New Load.B113_1_0 Bus1=N01131T.2.0 phases=1 duty=shapeB kV=0.12 kW=0.77 vminpu=0.9 vmaxpu=1.10 
New Load.B112_0 Bus1=N112T.2.0 phases=1 duty=shapeB kV=0.12 kW=7.22 vminpu=0.9 vmaxpu=1.10 
New Load.B112_1 Bus1=N112T.2.0 phases=1 duty=shapeB kV=0.12 kW=7.6 vminpu=0.9 vmaxpu=1.10 
New Load.B111 Bus1=N111T.2.0 phases=1 duty=shapeB kV=0.12 kW=18.75 vminpu=0.9 vmaxpu=1.10 
New Load.B107 Bus1=N107T.2.0 phases=1 duty=shapeB kV=0.12 kW=5.9 vminpu=0.9 vmaxpu=1.10 
New Load.B101_2 Bus1=N01012T.3.0 phases=1 duty=shapeC kV=0.12 kW=9.09 vminpu=0.9 vmaxpu=1.10 
New Load.B101_1 Bus1=N01011T.3.0 phases=1 duty=shapeC kV=0.12 kW=0.57 vminpu=0.9 vmaxpu=1.10 
New Load.B100 Bus1=N100T.1.0 phases=1 duty=shapeA kV=0.12 kW=4.72 vminpu=0.9 vmaxpu=1.10 

New Load.B99A Bus1=N99TA.1.0 phases=1 duty=shapeA kV=0.12 kW=9.01 vminpu=0.9 vmaxpu=1.10 
New Load.B99B Bus1=N99TB.2.0 phases=1 duty=shapeB kV=0.12 kW=9.01 vminpu=0.9 vmaxpu=1.10 
New Load.B99C Bus1=N99TC.3.0 phases=1 duty=shapeC kV=0.12 kW=9.01 vminpu=0.9 vmaxpu=1.10 



New Load.B94_1 Bus1=N0941TA.1.0 phases=1 duty=shapeA kV=0.12 kW=0.22 vminpu=0.9 vmaxpu=1.10 
New Load.B94_1_1 Bus1=N0941TA.1.0 phases=1 duty=shapeA kV=0.12 kW=9.84 vminpu=0.9 vmaxpu=1.10 
...